@<TRIPOS>MOLECULE
RES
1032 1081 1 0 1
SMALL
NO_CHARGES
@<TRIPOS>CRYSIN
  131.0220    51.9844    13.0840    90.0000    90.0000    90.0000  1  1
@<TRIPOS>ATOM
       1 C            3.6212    -0.1374     0.0004 C             1 RES     
       2 C            2.7317    -1.1909    -0.0048 C             1 RES     
       3 C            1.2887    -0.7859    -0.0075 C             1 RES     
       4 C           -0.0033    -1.4722    -0.0474 C             1 RES     
       5 O            0.0176    -2.8576    -0.2061 O             1 RES     
       6 C           -1.1987    -3.6076    -0.0509 C             1 RES     
       7 C           -0.9206    -5.1143     0.0074 C             1 RES     
       8 C           -0.1009    -5.4761     1.2596 C             1 RES     
       9 C            1.2422    -4.7818     1.3150 C             1 RES     
      10 C           -2.2541    -5.8881    -0.0021 C             1 RES     
      11 C           -2.0196    -7.3948    -0.0146 C             1 RES     
      12 C           -3.3288    -8.1613    -0.0129 C             1 RES     
      13 C           -3.0464    -9.6515    -0.0044 C             1 RES     
      14 C           -1.2157    -0.7056    -0.0089 C             1 RES     
      15 S           -2.8955    -1.1640    -0.0039 S             1 RES     
      16 C           -3.4949     0.4138     0.0012 C             1 RES     
      17 C           -4.8852     0.7087     0.0013 C             1 RES     
      18 C           -5.4533     1.9559     0.0003 C             1 RES     
      19 S           -4.8821     3.5538     0.0016 S             1 RES     
      20 C           -6.4831     4.1515    -0.0122 C             1 RES     
      21 C           -6.7095     5.6156    -0.1080 C             1 RES     
      22 O           -8.0145     5.8812    -0.5934 O             1 RES     
      23 C           -9.4309     5.1473    -0.7994 C             1 RES     
      24 C          -11.1514     6.1336    -1.0029 C             1 RES     
      25 C          -11.1801     7.1690    -2.0232 C             1 RES     
      26 C          -10.0601     8.1456    -1.9735 C             1 RES     
      27 C          -10.0470     9.1666    -3.0296 C             1 RES     
      28 C           -8.8310    10.0701    -2.8261 C             1 RES     
      29 C          -12.7452     5.3553    -0.9397 C             1 RES     
      30 C          -13.9091     6.2496    -0.5957 C             1 RES     
      31 O           -5.9429     6.4540     0.0374 O             1 RES     
      32 C           -7.3094     3.0813     0.0106 C             1 RES     
      33 F           -8.5781     3.1881     0.0244 F             1 RES     
      34 C           -6.7853     1.7939     0.0026 C             1 RES     
      35 C           -7.4155     0.4998     0.0020 C             1 RES     
      36 C           -8.8099    -0.0207    -0.0020 C             1 RES     
      37 C           -9.7190    -1.1071    -0.0092 C             1 RES     
      38 C          -11.2829    -0.7074    -0.0185 C             1 RES     
      39 C          -12.6187    -1.2705    -0.0633 C             1 RES     
      40 O          -12.6795    -2.6262    -0.2471 O             1 RES     
      41 C          -13.9438    -3.2425    -0.0684 C             1 RES     
      42 C          -13.7382    -4.7424    -0.0055 C             1 RES     
      43 C          -12.9349    -5.1340     1.2499 C             1 RES     
      44 C          -11.5516    -4.5172     1.3095 C             1 RES     
      45 C          -15.1105    -5.4215    -0.0194 C             1 RES     
      46 C          -14.9605    -6.9333    -0.0331 C             1 RES     
      47 C          -16.3120    -7.6167    -0.0361 C             1 RES     
      48 C          -16.1175    -9.1196    -0.0277 C             1 RES     
      49 C          -13.8084    -0.4132    -0.0298 C             1 RES     
      50 S          -15.5225    -0.7115    -0.0293 S             1 RES     
      51 C          -15.9920     0.9195    -0.0198 C             1 RES     
      52 C          -17.3507     1.3187    -0.0220 C             1 RES     
      53 C          -17.8343     2.6025    -0.0240 C             1 RES     
      54 S          -17.1692     4.1579    -0.0170 S             1 RES     
      55 C          -18.7490     4.8209    -0.0442 C             1 RES     
      56 C          -18.8128     6.3970    -0.1271 C             1 RES     
      57 O          -20.1851     6.6830    -0.6400 O             1 RES     
      58 C          -21.6118     6.0351    -0.8663 C             1 RES     
      59 C          -23.2640     7.1056    -1.0678 C             1 RES     
      60 C          -23.2275     8.1542    -2.0765 C             1 RES     
      61 C          -22.0517     9.0638    -2.0144 C             1 RES     
      62 C          -21.9736    10.0846    -3.0693 C             1 RES     
      63 C          -20.7071    10.9147    -2.8621 C             1 RES     
      64 C          -24.8959     6.4336    -0.9941 C             1 RES     
      65 C          -26.0041     7.3990    -0.6479 C             1 RES     
      66 O          -18.0567     7.1517     0.0032 O             1 RES     
      67 C          -19.5914     3.8341    -0.0197 C             1 RES     
      68 F          -20.9029     4.0261     0.0008 F             1 RES     
      69 C          -19.1792     2.5163    -0.0268 C             1 RES     
      70 C          -19.8821     1.2692    -0.0285 C             1 RES     
      71 C          -21.3023     0.8376    -0.0365 C             1 RES     
      72 C          -22.2720    -0.1927    -0.0462 C             1 RES     
      73 C          -23.8080     0.2994    -0.0605 C             1 RES     
      74 C          -25.1741    -0.1829    -0.1091 C             1 RES     
      75 O          -25.3143    -1.5327    -0.2926 O             1 RES     
      76 C          -26.6136    -2.0723    -0.1175 C             1 RES     
      77 C          -26.4976    -3.5817    -0.0531 C             1 RES     
      78 C          -25.7229    -4.0193     1.2050 C             1 RES     
      79 C          -24.3055    -3.4858     1.2687 C             1 RES     
      80 C          -27.9078    -4.1778    -0.0710 C             1 RES     
      81 C          -27.8479    -5.6958    -0.0834 C             1 RES     
      82 C          -29.2376    -6.2977    -0.0903 C             1 RES     
      83 C          -29.1329    -7.8094    -0.0805 C             1 RES     
      84 C          -26.3109     0.7439    -0.0798 C             1 RES     
      85 S          -28.0401     0.5486    -0.0845 S             1 RES     
      86 C          -28.4118     2.2054    -0.0776 C             1 RES     
      87 C          -29.7450     2.6889    -0.0841 C             1 RES     
      88 C          -30.1514     3.9976    -0.0845 C             1 RES     
      89 S          -29.3965     5.5128    -0.0705 S             1 RES     
      90 C          -30.9066     6.3144    -0.1004 C             1 RES     
      91 C          -30.9875     7.7658    -0.2091 C             1 RES     
      92 O          -32.2084     8.2089    -0.7177 O             1 RES     
      93 C          -33.7072     7.6478    -0.9185 C             1 RES     
      94 C          -35.2984     8.8287    -1.1267 C             1 RES     
      95 C          -35.1971     9.8600    -2.1456 C             1 RES     
      96 C          -33.9685    10.6947    -2.0850 C             1 RES     
      97 C          -33.8271    11.7070    -3.1399 C             1 RES     
      98 C          -32.5145    12.4603    -2.9282 C             1 RES     
      99 C          -36.9713     8.2436    -1.0746 C             1 RES     
     100 C          -38.0244     9.2694    -0.7379 C             1 RES     
     101 O          -30.0813     8.5399    -0.0432 O             1 RES     
     102 C          -31.8639     5.3417    -0.0860 C             1 RES     
     103 F          -33.1029     5.5989    -0.0851 F             1 RES     
     104 C          -31.4923     4.0007    -0.0917 C             1 RES     
     105 C          -32.2734     2.7926    -0.0992 C             1 RES     
     106 C          -33.7159     2.4412    -0.1133 C             1 RES     
     107 C          -34.7451     1.4693    -0.1277 C             1 RES     
     108 C          -36.2490     2.0516    -0.1470 C             1 RES     
     109 C          -37.6413     1.6512    -0.2012 C             1 RES     
     110 O          -37.8609     0.3122    -0.3868 O             1 RES     
     111 C          -39.1906    -0.1498    -0.2173 C             1 RES     
     112 C          -39.1649    -1.6636    -0.1547 C             1 RES     
     113 C          -38.4222    -2.1482     1.1054 C             1 RES     
     114 C          -36.9758    -1.7002     1.1748 C             1 RES     
     115 C          -40.6080    -2.1749    -0.1783 C             1 RES     
     116 C          -40.6386    -3.6938    -0.1928 C             1 RES     
     117 C          -42.0615    -4.2119    -0.2054 C             1 RES     
     118 C          -42.0470    -5.7273    -0.1975 C             1 RES     
     119 C          -38.7209     2.6439    -0.1747 C             1 RES     
     120 S          -40.4585     2.5515    -0.1858 S             1 RES     
     121 C          -40.7313     4.2275    -0.1776 C             1 RES     
     122 C          -42.0335     4.7894    -0.1877 C             1 RES     
     123 C          -42.3617     6.1199    -0.1879 C             1 RES     
     124 S          -41.5189     7.5881    -0.1699 S             1 RES     
     125 C          -42.9780     8.4801    -0.2041 C             1 RES     
     126 C          -42.9808     9.9275    -0.3167 C             1 RES     
     127 O          -44.1607    10.4475    -0.8378 O             1 RES     
     128 C          -45.6905     9.9766    -1.0361 C             1 RES     
     129 C          -47.2085    11.2484    -1.2453 C             1 RES     
     130 C          -47.0430    12.2726    -2.2626 C             1 RES     
     131 C          -45.7667    13.0316    -2.1960 C             1 RES     
     132 C          -45.5621    14.0343    -3.2498 C             1 RES     
     133 C          -44.2079    14.7085    -3.0339 C             1 RES     
     134 C          -48.9121    10.7633    -1.1981 C             1 RES     
     135 C          -49.9039    11.8497    -0.8640 C             1 RES     
     136 O          -42.0191    10.6542    -0.1416 O             1 RES     
     137 C          -43.9932     7.5635    -0.1934 C             1 RES     
     138 F          -45.2127     7.8936    -0.1979 F             1 RES     
     139 C          -43.6999     6.2027    -0.1990 C             1 RES     
     140 C          -44.5514     5.0431    -0.2101 C             1 RES     
     141 C          -46.0122     4.7782    -0.2291 C             1 RES     
     142 C          -47.0973     3.8691    -0.2473 C             1 RES     
     143 C          -48.5637     4.5400    -0.2710 C             1 RES     
     144 C          -49.9772     4.2230    -0.3297 C             1 RES     
     145 O          -50.2755     2.8995    -0.5169 O             1 RES     
     146 C          -51.6308     2.5173    -0.3518 C             1 RES     
     147 C          -51.6954     1.0046    -0.2903 C             1 RES     
     148 C          -50.9867     0.4759     0.9717 C             1 RES     
     149 C          -49.5165     0.8371     1.0458 C             1 RES     
     150 C          -53.1664     0.5800    -0.3187 C             1 RES     
     151 C          -53.2872    -0.9344    -0.3344 C             1 RES     
     152 C          -54.7384    -1.3669    -0.3517 C             1 RES     
     153 C          -54.8141    -2.8804    -0.3449 C             1 RES     
     154 C          -50.9958     5.2783    -0.3058 C             1 RES     
     155 S          -52.7359     5.2894    -0.3223 S             1 RES     
     156 C          -52.9086     6.9787    -0.3136 C             1 RES     
     157 C          -54.1750     7.6174    -0.3271 C             1 RES     
     158 C          -54.4236     8.9651    -0.3266 C             1 RES     
     159 S          -53.4958    10.3813    -0.3042 S             1 RES     
     160 C          -54.8991    11.3594    -0.3424 C             1 RES     
     161 C          -54.8206    12.8019    -0.4577 C             1 RES     
     162 O          -55.9590    13.3932    -0.9917 O             1 RES     
     163 C          -57.5135    13.0145    -1.1879 C             1 RES     
     164 C          -58.9531    14.3725    -1.3972 C             1 RES     
     165 C          -58.7238    15.3861    -2.4125 C             1 RES     
     166 C          -57.4045    16.0669    -2.3397 C             1 RES     
     167 C          -57.1373    17.0564    -3.3919 C             1 RES     
     168 C          -55.7463    17.6490    -3.1717 C             1 RES     
     169 C          -60.6813    13.9891    -1.3549 C             1 RES     
     170 C          -61.6082    15.1325    -1.0229 C             1 RES     
     171 O          -53.8119    13.4735    -0.2742 O             1 RES     
     172 C          -55.9678    10.5032    -0.3356 C             1 RES     
     173 F          -57.1644    10.9051    -0.3453 F             1 RES     
     174 C          -55.7546     9.1273    -0.3415 C             1 RES     
     175 C          -56.6733     8.0202    -0.3567 C             1 RES     
     176 C          -58.1473     7.8428    -0.3806 C             1 RES     
     177 C          -59.2843     6.9998    -0.4028 C             1 RES     
     178 C          -60.7081     7.7567    -0.4305 C             1 RES     
     179 C          -62.1377     7.5245    -0.4937 C             1 RES     
     180 O          -62.5138     6.2212    -0.6830 O             1 RES     
     181 C          -63.8899     5.9201    -0.5224 C             1 RES     
     182 C          -64.0446     4.4138    -0.4625 C             1 RES     
     183 C          -63.3725     3.8429     0.8011 C             1 RES     
     184 C          -61.8837     4.1159     0.8799 C             1 RES     
     185 C          -65.5381     4.0776    -0.4957 C             1 RES     
     186 C          -65.7488     2.5730    -0.5132 C             1 RES     
     187 C          -67.2232     2.2277    -0.5353 C             1 RES     
     188 C          -67.3888     0.7213    -0.5301 C             1 RES     
     189 C          -63.0917     8.6384    -0.4719 C             1 RES     
     190 S          -64.8279     8.7526    -0.4937 S             1 RES     
     191 C          -64.8998    10.4489    -0.4837 C             1 RES     
     192 C          -66.1261    11.1609    -0.5006 C             1 RES     
     193 C          -66.2935    12.5209    -0.5017 C             1 RES     
     194 S          -65.2808    13.8772    -0.4778 S             1 RES     
     195 C          -66.6260    14.9307    -0.5191 C             1 RES     
     196 C          -66.4291    16.3837    -0.6182 C             1 RES     
     197 O          -67.5672    17.0304    -1.1267 O             1 RES     
     198 C          -69.1375    16.7447    -1.3517 C             1 RES     
     199 C          -70.4905    18.1914    -1.5747 C             1 RES     
     200 C          -70.1981    19.1892    -2.5905 C             1 RES     
     201 C          -68.8416    19.7935    -2.5184 C             1 RES     
     202 C          -68.5128    20.7656    -3.5694 C             1 RES     
     203 C          -67.0888    21.2730    -3.3436 C             1 RES     
     204 C          -72.2424    17.9139    -1.5395 C             1 RES     
     205 C          -73.0988    19.1101    -1.2094 C             1 RES     
     206 O          -65.4246    16.9722    -0.4505 O             1 RES     
     207 C          -67.7367    14.1475    -0.5153 C             1 RES     
     208 F          -68.9137    14.6216    -0.5226 F             1 RES     
     209 C          -67.6125    12.7623    -0.5211 C             1 RES     
     210 C          -68.5957    11.7123    -0.5381 C             1 RES     
     211 C          -70.0775    11.6227    -0.5658 C             1 RES     
     212 C          -71.2629    10.8494    -0.5918 C             1 RES     
     213 C          -72.6392    11.6897    -0.6230 C             1 RES     
     214 C          -74.0799    11.5432    -0.6906 C             1 RES     
     215 O          -74.5323    10.2648    -0.8816 O             1 RES     
     216 C          -75.9244    10.0464    -0.7251 C             1 RES     
     217 C          -76.1686     8.5521    -0.6660 C             1 RES     
     218 C          -75.5355     7.9422     0.5995 C             1 RES     
     219 C          -74.0333     8.1260     0.6829 C             1 RES     
     220 C          -77.6794     8.3054    -0.7038 C             1 RES     
     221 C          -77.9792     6.8161    -0.7223 C             1 RES     
     222 C          -79.4714     6.5592    -0.7490 C             1 RES     
     223 C          -79.7264     5.0653    -0.7446 C             1 RES     
     224 C          -74.9662    12.7119    -0.6712 C             1 RES     
     225 S          -76.6924    12.9298    -0.6981 S             1 RES     
     226 C          -76.6631    14.6275    -0.6882 C             1 RES     
     227 C          -77.8446    15.4117    -0.7088 C             1 RES     
     228 C          -77.9308    16.7792    -0.7084 C             1 RES     
     229 S          -76.8399    18.0733    -0.6783 S             1 RES     
     230 C          -78.1177    19.2085    -0.7234 C             1 RES     
     231 C          -77.8508    20.6387    -0.8257 C             1 RES     
     232 O          -78.9279    21.3578    -1.3453 O             1 RES     
     233 C          -80.5139    21.1666    -1.5688 C             1 RES     
     234 C          -81.7784    22.6902    -1.7921 C             1 RES     
     235 C          -81.4233    23.6700    -2.8051 C             1 RES     
     236 C          -80.0334    24.1913    -2.7258 C             1 RES     
     237 C          -79.6433    25.1431    -3.7744 C             1 RES     
     238 C          -78.1928    25.5650    -3.5431 C             1 RES     
     239 C          -83.5429    22.5166    -1.7634 C             1 RES     
     240 C          -84.3284    23.7614    -1.4351 C             1 RES     
     241 O          -76.7916    21.1760    -0.6462 O             1 RES     
     242 C          -79.2772    18.4895    -0.7251 C             1 RES     
     243 F          -80.4208    19.0319    -0.7380 F             1 RES     
     244 C          -79.2329    17.0988    -0.7322 C             1 RES     
     245 C          -80.2768    16.1091    -0.7547 C             1 RES     
     246 C          -81.7612    16.1081    -0.7882 C             1 RES     
     247 C          -82.9904    15.4066    -0.8196 C             1 RES     
     248 C          -84.3140    16.3274    -0.8550 C             1 RES     
     249 C          -85.7606    16.2670    -0.9282 C             1 RES     
     250 O          -86.2876    15.0179    -1.1225 O             1 RES     
     251 C          -87.6908    14.8826    -0.9714 C             1 RES     
     252 C          -88.0239    13.4054    -0.9153 C             1 RES     
     253 C          -87.4331    12.7574     0.3518 C             1 RES     
     254 C          -85.9229    12.8514     0.4410 C             1 RES     
     255 C          -89.5465    13.2492    -0.9591 C             1 RES     
     256 C          -89.9344    11.7804    -0.9807 C             1 RES     
     257 C          -91.4392    11.6128    -1.0132 C             1 RES     
     258 C          -91.7828    10.1368    -1.0119 C             1 RES     
     259 C          -86.5758    17.4864    -0.9105 C             1 RES     
     260 S          -88.2859    17.8067    -0.9435 S             1 RES     
     261 C          -88.1555    19.4997    -0.9312 C             1 RES     
     262 C          -89.2881    20.3532    -0.9551 C             1 RES     
     263 C          -89.2929    21.7235    -0.9524 C             1 RES     
     264 S          -88.1276    22.9510    -0.9156 S             1 RES     
     265 C          -89.3342    24.1621    -0.9641 C             1 RES     
     266 C          -88.9927    25.5699    -1.0682 C             1 RES     
     267 O          -90.0106    26.3547    -1.6003 O             1 RES     
     268 C          -91.6053    26.2588    -1.8222 C             1 RES     
     269 C          -92.7770    27.8538    -2.0446 C             1 RES     
     270 C          -92.3603    28.8121    -3.0542 C             1 RES     
     271 C          -90.9419    29.2484    -2.9672 C             1 RES     
     272 C          -90.4918    30.1767    -4.0129 C             1 RES     
     273 C          -89.0199    30.5115    -3.7759 C             1 RES     
     274 C          -94.5476    27.7847    -2.0223 C             1 RES     
     275 C          -95.2593    29.0738    -1.6952 C             1 RES     
     276 O          -87.8905    26.0481    -0.8776 O             1 RES     
     277 C          -90.5370    23.5114    -0.9714 C             1 RES     
     278 F          -91.6441    24.1202    -0.9897 F             1 RES     
     279 C          -90.5735    22.1199    -0.9805 C             1 RES     
     280 C          -91.6744    21.1941    -1.0089 C             1 RES     
     281 C          -93.1560    21.2817    -1.0482 C             1 RES     
     282 C          -94.4247    20.6546    -1.0854 C             1 RES     
     283 C          -95.6908    21.6528    -1.1245 C             1 RES     
     284 C          -97.1381    21.6787    -1.2033 C             1 RES     
     285 O          -97.7380    20.4636    -1.4015 O             1 RES     
     286 C          -99.1474    20.4118    -1.2560 C             1 RES     
     287 C          -99.5681    18.9570    -1.2036 C             1 RES     
     288 C          -99.0219    18.2732     0.0648 C             1 RES     
     289 C          -97.5092    18.2769     0.1599 C             1 RES     
     290 C         -101.0972    18.8919    -1.2533 C             1 RES     
     291 C         -101.5719    17.4489    -1.2787 C             1 RES     
     292 C         -103.0838    17.3714    -1.3173 C             1 RES     
     293 C         -103.5148    15.9185    -1.3195 C             1 RES     
     294 C          -97.8789    22.9445    -1.1869 C             1 RES     
     295 S          -99.5665    23.3661    -1.2259 S             1 RES     
     296 C          -99.3350    25.0481    -1.2104 C             1 RES     
     297 C         -100.4136    25.9679    -1.2371 C             1 RES     
     298 C         -100.3363    27.3362    -1.2315 C             1 RES     
     299 S          -99.1013    28.4935    -1.1875 S             1 RES     
     300 C         -100.2331    29.7754    -1.2390 C             1 RES     
     301 C          -99.8155    31.1590    -1.3440 C             1 RES     
     302 O         -100.7750    32.0042    -1.8887 O             1 RES     
     303 C         -102.3726    32.0042    -2.1094 C             1 RES     
     304 C         -103.4479    33.6648    -2.3297 C             1 RES     
     305 C         -102.9701    34.5983    -3.3353 C             1 RES     
     306 C         -101.5282    34.9478    -3.2403 C             1 RES     
     307 C         -101.0191    35.8490    -4.2827 C             1 RES     
     308 C          -99.5309    36.0955    -4.0398 C             1 RES     
     309 C         -105.2218    33.6995    -2.3131 C             1 RES     
     310 C         -105.8641    35.0270    -1.9864 C             1 RES     
     311 O          -98.6802    31.5737    -1.1425 O             1 RES     
     312 C         -101.4733    29.1957    -1.2521 C             1 RES     
     313 F         -102.5397    29.8707    -1.2755 F             1 RES     
     314 C         -101.5906    27.8081    -1.2637 C             1 RES     
     315 C         -102.7423    26.9477    -1.2985 C             1 RES     
     316 C         -104.2130    27.1216    -1.3438 C             1 RES     
     317 C         -105.5141    26.5683    -1.3872 C             1 RES     
     318 C         -106.7143    27.6327    -1.4299 C             1 RES     
     319 C         -108.1568    27.7377    -1.5147 C             1 RES     
     320 O         -108.8307    26.5624    -1.7203 O             1 RES     
     321 C         -110.2434    26.6013    -1.5787 C             1 RES     
     322 C         -110.7586    25.1794    -1.5291 C             1 RES     
     323 C         -110.2605    24.4663    -0.2580 C             1 RES     
     324 C         -108.7505    24.3810    -0.1561 C             1 RES     
     325 C         -112.2889    25.2129    -1.5842 C             1 RES     
     326 C         -112.8504    23.8019    -1.6141 C             1 RES     
     327 C         -114.3638    23.8155    -1.6587 C             1 RES     
     328 C         -114.8805    22.3908    -1.6653 C             1 RES     
     329 C         -108.8221    29.0415    -1.4977 C             1 RES     
     330 S         -110.4789    29.5663    -1.5423 S             1 RES     
     331 C         -110.1683    31.2405    -1.5233 C             1 RES     
     332 C         -111.1348    32.3059    -1.5503 C             1 RES     
     333 C         -112.4935    32.1743    -1.5886 C             1 RES     
     334 S         -113.4211    30.8194    -1.6073 S             1 RES     
     335 C         -114.8876    31.7083    -1.6719 C             1 RES     
     336 C         -115.9964    30.7442    -1.7410 C             1 RES     
     337 O         -117.2486    31.1891    -1.9751 O             1 RES     
     338 C         -117.5716    32.5467    -1.8019 C             1 RES     
     339 C         -119.0751    32.7478    -1.7924 C             1 RES     
     340 C         -119.7241    32.0993    -0.5597 C             1 RES     
     341 C         -119.5296    30.5967    -0.5152 C             1 RES     
     342 C         -120.1971    29.9901     0.6964 C             1 RES     
     343 C         -119.9341    28.4981     0.6963 C             1 RES     
     344 C         -119.3240    34.2584    -1.8075 C             1 RES     
     345 C         -120.8033    34.5746    -1.8666 C             1 RES     
     346 O         -115.8523    29.5215    -1.6659 O             1 RES     
     347 C         -114.5901    33.0885    -1.6582 C             1 RES     
     348 F         -115.4619    34.0631    -1.6857 F             1 RES     
     349 C         -113.1650    33.3390    -1.6103 C             1 RES     
     350 C         -112.4011    34.4950    -1.5862 C             1 RES     
     351 S         -110.6633    34.0117    -1.5370 S             1 RES     
     352 C         -108.8259    31.4285    -1.4859 C             1 RES     
     353 C         -108.0909    30.2124    -1.4542 C             1 RES     
     354 C         -106.7382    30.0838    -1.3844 C             1 RES     
     355 O         -106.0753    31.2757    -1.2462 O             1 RES     
     356 C         -104.6803    31.2071    -0.9064 C             1 RES     
     357 C         -103.9756    32.5619    -0.3245 C             1 RES     
     358 C         -104.7548    33.4182     0.6102 C             1 RES     
     359 C         -106.2849    33.4642     0.6715 C             1 RES     
     360 C         -102.2393    33.3403    -0.2506 C             1 RES     
     361 C         -101.6535    34.7465    -0.2671 C             1 RES     
     362 C         -100.1089    34.5593    -0.6846 C             1 RES     
     363 C          -99.5432    35.9279    -0.7853 C             1 RES     
     364 C         -106.1245    28.8536    -1.3960 C             1 RES     
     365 S         -104.5250    28.6704    -1.4388 S             1 RES     
     366 S         -102.0856    25.3579    -1.2814 S             1 RES     
     367 C          -98.0103    25.3343    -1.1795 C             1 RES     
     368 C          -97.2123    24.1560    -1.1488 C             1 RES     
     369 C          -95.8535    24.0977    -1.0848 C             1 RES     
     370 O          -95.2542    25.3217    -0.9541 O             1 RES     
     371 C          -93.8568    25.3312    -0.6180 C             1 RES     
     372 C          -93.2319    26.7259    -0.0406 C             1 RES     
     373 C          -94.0563    27.5334     0.8987 C             1 RES     
     374 C          -95.5857    27.4885     0.9670 C             1 RES     
     375 C          -91.5437    27.6079     0.0239 C             1 RES     
     376 C          -91.0427    29.0457     0.0042 C             1 RES     
     377 C          -89.4912    28.9492    -0.4182 C             1 RES     
     378 C          -89.0087    30.3488    -0.5223 C             1 RES     
     379 C          -95.1708    22.9039    -1.0958 C             1 RES     
     380 S          -93.5625    22.8085    -1.1435 S             1 RES     
     381 S          -90.9223    19.6455    -0.9917 S             1 RES     
     382 C          -86.8498    19.8642    -0.9059 C             1 RES     
     383 C          -85.9825    18.7355    -0.8770 C             1 RES     
     384 C          -84.6223    18.7582    -0.8190 C             1 RES     
     385 O          -84.0967    20.0159    -0.6945 O             1 RES     
     386 C          -82.7014    20.1093    -0.3634 C             1 RES     
     387 C          -82.1591    21.5408     0.2102 C             1 RES     
     388 C          -83.0257    22.2972     1.1541 C             1 RES     
     389 C          -84.5494    22.1614     1.2290 C             1 RES     
     390 C          -80.5248    22.5233     0.2663 C             1 RES     
     391 C          -80.1097    23.9877     0.2440 C             1 RES     
     392 C          -78.5566    23.9821    -0.1836 C             1 RES     
     393 C          -78.1589    25.4078    -0.2903 C             1 RES     
     394 C          -83.8694    17.6073    -0.8300 C             1 RES     
     395 S          -82.2584    17.6078    -0.8803 S             1 RES     
     396 S          -79.4339    14.6080    -0.7382 S             1 RES     
     397 C          -75.3813    15.0692    -0.6684 C             1 RES     
     398 C          -74.4483    13.9941    -0.6417 C             1 RES     
     399 C          -73.0917    14.0976    -0.5897 C             1 RES     
     400 O          -72.6417    15.3847    -0.4705 O             1 RES     
     401 C          -71.2536    15.5615    -0.1443 C             1 RES     
     402 C          -70.7960    17.0245     0.4266 C             1 RES     
     403 C          -71.7016    17.7274     1.3750 C             1 RES     
     404 C          -73.2143    17.5013     1.4560 C             1 RES     
     405 C          -69.2217    18.1038     0.4747 C             1 RES     
     406 C          -68.8940    19.5899     0.4499 C             1 RES     
     407 C          -67.3445    19.6753     0.0171 C             1 RES     
     408 C          -67.0328    21.1219    -0.0918 C             1 RES     
     409 C          -72.2715    12.9938    -0.6011 C             1 RES     
     410 S          -70.6635    13.0901    -0.6543 S             1 RES     
     411 S          -67.6648    10.2642    -0.5229 S             1 RES     
     412 C          -63.6466    10.9664    -0.4675 C             1 RES     
     413 C          -62.6508     9.9494    -0.4429 C             1 RES     
     414 C          -61.3026    10.1341    -0.3925 C             1 RES     
     415 O          -60.9289    11.4455    -0.2682 O             1 RES     
     416 C          -59.5517    11.7047     0.0524 C             1 RES     
     417 C          -59.1782    13.1895     0.6198 C             1 RES     
     418 C          -60.1248    13.8433     1.5635 C             1 RES     
     419 C          -61.6211    13.5272     1.6476 C             1 RES     
     420 C          -57.6746    14.3560     0.6654 C             1 RES     
     421 C          -57.4385    15.8607     0.6359 C             1 RES     
     422 C          -55.8995    16.0412     0.1961 C             1 RES     
     423 C          -55.6747    17.5041     0.0829 C             1 RES     
     424 C          -60.4187     9.0805    -0.4098 C             1 RES     
     425 S          -58.8199     9.2725    -0.4789 S             1 RES     
     426 S          -55.6576     6.6300    -0.3449 S             1 RES     
     427 C          -51.6882     7.5695    -0.3016 C             1 RES     
     428 C          -50.6337     6.6132    -0.2795 C             1 RES     
     429 C          -49.2987     6.8775    -0.2341 C             1 RES     
     430 O          -49.0036     8.2090    -0.1140 O             1 RES     
     431 C          -47.6436     8.5500     0.2025 C             1 RES     
     432 C          -47.3581    10.0558     0.7680 C             1 RES     
     433 C          -48.3378    10.6512     1.7166 C             1 RES     
     434 C          -49.8124    10.2468     1.8062 C             1 RES     
     435 C          -45.9253    11.3115     0.8074 C             1 RES     
     436 C          -45.7785    12.8269     0.7774 C             1 RES     
     437 C          -44.2538    13.0973     0.3336 C             1 RES     
     438 C          -44.1169    14.5707     0.2197 C             1 RES     
     439 C          -48.3535     5.8786    -0.2522 C             1 RES     
     440 S          -46.7690     6.1653    -0.3228 S             1 RES     
     441 S          -43.4548     3.7158    -0.2002 S             1 RES     
     442 C          -39.5482     4.8899    -0.1698 C             1 RES     
     443 C          -38.4388     3.9979    -0.1506 C             1 RES     
     444 C          -37.1217     4.3411    -0.1103 C             1 RES     
     445 O          -36.9063     5.6880     0.0061 O             1 RES     
     446 C          -35.5684     6.1095     0.3186 C             1 RES     
     447 C          -35.3720     7.6308     0.8829 C             1 RES     
     448 C          -36.3811     8.1659     1.8365 C             1 RES     
     449 C          -37.8288     7.6747     1.9314 C             1 RES     
     450 C          -34.0154     8.9711     0.9164 C             1 RES     
     451 C          -33.9582    10.4921     0.8864 C             1 RES     
     452 C          -32.4531    10.8515     0.4384 C             1 RES     
     453 C          -32.4045    12.3303     0.3242 C             1 RES     
     454 C          -36.1187     3.4004    -0.1296 C             1 RES     
     455 S          -34.5541     3.7808    -0.2017 S             1 RES     
     456 S          -31.1000     1.5329    -0.0916 S             1 RES     
     457 C          -27.2701     2.9370    -0.0753 C             1 RES     
     458 C          -26.1097     2.1123    -0.0597 C             1 RES     
     459 C          -24.8153     2.5333    -0.0259 C             1 RES     
     460 O          -24.6795     3.8913     0.0857 O             1 RES     
     461 C          -23.3693     4.3922     0.3995 C             1 RES     
     462 C          -23.2574     5.9234     0.9916 C             1 RES     
     463 C          -24.3016     6.4011     1.9337 C             1 RES     
     464 C          -25.7140     5.8194     2.0221 C             1 RES     
     465 C          -21.9934     7.3401     1.0148 C             1 RES     
     466 C          -22.0256     8.8681     0.9589 C             1 RES     
     467 C          -20.5411     9.3135     0.4992 C             1 RES     
     468 C          -20.5757    10.7937     0.3847 C             1 RES     
     469 C          -23.7583     1.6534    -0.0454 C             1 RES     
     470 S          -22.2199     2.1255    -0.1163 S             1 RES     
     471 S          -18.6355     0.0851    -0.0232 S             1 RES     
     472 C          -14.8964     1.7186    -0.0204 C             1 RES     
     473 C          -13.6889     0.9646    -0.0088 C             1 RES     
     474 C          -12.4215     1.4616     0.0211 C             1 RES     
     475 O          -12.3678     2.8245     0.1318 O             1 RES     
     476 C          -11.0880     3.4019     0.4364 C             1 RES     
     477 C          -11.0718     4.9381     1.0012 C             1 RES     
     478 C          -12.1285     5.3480     1.9650 C             1 RES     
     479 C          -13.5069     4.6885     2.0699 C             1 RES     
     480 C           -9.8825     6.4328     1.0237 C             1 RES     
     481 C          -10.0051     7.9495     0.9938 C             1 RES     
     482 C           -8.5550     8.4831     0.5367 C             1 RES     
     483 C           -8.6829     9.9570     0.4237 C             1 RES     
     484 C          -11.3130     0.6472    -0.0025 C             1 RES     
     485 S           -9.8036     1.2099    -0.0778 S             1 RES     
     486 S           -6.0906    -0.6083     0.0029 S             1 RES     
     487 C           -2.4582     1.2955    -0.0085 C             1 RES     
     488 C           -1.1687     0.6830    -0.0112 C             1 RES     
     489 C            0.0648     1.3292    -0.0578 C             1 RES     
     490 O           -0.0238     2.7060    -0.2250 O             1 RES     
     491 C            1.1496     3.4866    -0.0667 C             1 RES     
     492 C            0.8822     4.9668    -0.0064 C             1 RES     
     493 C            0.0837     5.2988     1.2600 C             1 RES     
     494 C           -1.2483     4.5864     1.3185 C             1 RES     
     495 C            2.2394     5.6939    -0.0118 C             1 RES     
     496 C            2.0202     7.1946    -0.0254 C             1 RES     
     497 C            3.3317     7.9503    -0.0246 C             1 RES     
     498 C            3.0485     9.4393    -0.0183 C             1 RES     
     499 C            1.2578     0.6110    -0.0104 C             1 RES     
     500 S            2.8299     1.2976     0.0135 S             1 RES     
     501 H            4.6936    -0.0022    -0.0034 H             1 RES     
     502 H            3.1273    -2.1962    -0.0093 H             1 RES     
     503 H           -1.8269    -3.4224    -0.9287 H             1 RES     
     504 H           -1.7189    -3.3468     0.8815 H             1 RES     
     505 H           -0.3474    -5.3897    -0.8866 H             1 RES     
     506 H            0.1084    -6.5485     1.2808 H             1 RES     
     507 H           -0.6838    -5.2441     2.1598 H             1 RES     
     508 H            1.8033    -4.9834     0.3965 H             1 RES     
     509 H            1.8152    -5.1187     2.1775 H             1 RES     
     510 H            1.1339    -3.7073     1.4472 H             1 RES     
     511 H           -2.8434    -5.6088    -0.8858 H             1 RES     
     512 H           -2.8558    -5.6167     0.8756 H             1 RES     
     513 H           -1.4606    -7.7060     0.8726 H             1 RES     
     514 H           -1.4173    -7.6641    -0.8908 H             1 RES     
     515 H           -3.9192    -7.8948    -0.8949 H             1 RES     
     516 H           -3.9115    -7.8931     0.8761 H             1 RES     
     517 H           -2.4682    -9.9384    -0.8887 H             1 RES     
     518 H           -3.9831   -10.2127    -0.0014 H             1 RES     
     519 H           -2.4704    -9.9329     0.8842 H             1 RES     
     520 H           -9.3141     4.6840     0.2586 H             1 RES     
     521 H           -9.2515     4.4395    -1.5791 H             1 RES     
     522 H          -11.4860     6.7235    -0.0957 H             1 RES     
     523 H          -12.1056     7.7241    -1.8358 H             1 RES     
     524 H          -11.1657     6.5163    -2.8698 H             1 RES     
     525 H           -9.0938     7.6550    -1.9536 H             1 RES     
     526 H          -10.2401     8.8272    -1.1696 H             1 RES     
     527 H          -10.9880     9.7194    -2.9156 H             1 RES     
     528 H           -9.9868     8.5775    -3.9366 H             1 RES     
     529 H           -8.9041    10.7905    -2.0076 H             1 RES     
     530 H           -8.7318    10.6972    -3.6990 H             1 RES     
     531 H           -7.9157     9.4924    -2.6298 H             1 RES     
     532 H          -12.9264     4.7135    -0.0859 H             1 RES     
     533 H          -12.8552     4.6061    -1.7039 H             1 RES     
     534 H          -13.8692     6.7300     0.4034 H             1 RES     
     535 H          -14.7992     5.6123    -0.6046 H             1 RES     
     536 H          -13.9212     6.9967    -1.3523 H             1 RES     
     537 H           -9.3808    -2.1290    -0.0114 H             1 RES     
     538 H          -14.5538    -3.0043    -0.9455 H             1 RES     
     539 H          -14.4310    -2.9312     0.8675 H             1 RES     
     540 H          -13.1737    -5.0409    -0.8979 H             1 RES     
     541 H          -12.7858    -6.2151     1.2743 H             1 RES     
     542 H          -13.5039    -4.8629     2.1479 H             1 RES     
     543 H          -10.9998    -4.7485     0.3921 H             1 RES     
     544 H          -11.0006    -4.8870     2.1728 H             1 RES     
     545 H          -11.5943    -3.4380     1.4459 H             1 RES     
     546 H          -15.6759    -5.1017    -0.9053 H             1 RES     
     547 H          -15.6946    -5.1089     0.8564 H             1 RES     
     548 H          -14.4219    -7.2742     0.8556 H             1 RES     
     549 H          -14.3710    -7.2338    -0.9079 H             1 RES     
     550 H          -16.8817    -7.3134    -0.9198 H             1 RES     
     551 H          -16.8794    -7.3130     0.8514 H             1 RES     
     552 H          -15.5541    -9.4390    -0.9104 H             1 RES     
     553 H          -17.0857    -9.6237    -0.0279 H             1 RES     
     554 H          -15.5614    -9.4341     0.8625 H             1 RES     
     555 H          -21.5401     5.5644     0.1758 H             1 RES     
     556 H          -21.4591     5.3152    -1.6471 H             1 RES     
     557 H          -23.5484     7.7133    -0.1634 H             1 RES     
     558 H          -24.1165     8.7641    -1.8812 H             1 RES     
     559 H          -23.2523     7.5163    -2.9345 H             1 RES     
     560 H          -21.1173     8.5158    -1.9862 H             1 RES     
     561 H          -22.1962     9.7550    -1.2110 H             1 RES     
     562 H          -22.8803    10.6931    -2.9587 H             1 RES     
     563 H          -21.9461     9.4949    -3.9776 H             1 RES     
     564 H          -20.7403    11.6391    -2.0444 H             1 RES     
     565 H          -20.5674    11.5345    -3.7348 H             1 RES     
     566 H          -19.8293    10.2829    -2.6617 H             1 RES     
     567 H          -25.1152     5.8113    -0.1354 H             1 RES     
     568 H          -25.0594     5.6894    -1.7534 H             1 RES     
     569 H          -25.9409     7.8763     0.3521 H             1 RES     
     570 H          -26.9322     6.8183    -0.6580 H             1 RES     
     571 H          -25.9734     8.1479    -1.4023 H             1 RES     
     572 H          -21.9932    -1.2325    -0.0468 H             1 RES     
     573 H          -27.2055    -1.7987    -0.9966 H             1 RES     
     574 H          -27.0842    -1.7317     0.8168 H             1 RES     
     575 H          -25.9490    -3.9137    -0.9436 H             1 RES     
     576 H          -25.6384    -5.1074     1.2304 H             1 RES     
     577 H          -26.2775    -3.7142     2.1011 H             1 RES     
     578 H          -23.7656    -3.7501     0.3532 H             1 RES     
     579 H          -23.7802    -3.8871     2.1340 H             1 RES     
     580 H          -24.2844    -2.4059     1.4044 H             1 RES     
     581 H          -28.4504    -3.8255    -0.9589 H             1 RES     
     582 H          -28.4749    -3.8304     0.8028 H             1 RES     
     583 H          -27.3333    -6.0676     0.8072 H             1 RES     
     584 H          -27.2746    -6.0315    -0.9562 H             1 RES     
     585 H          -29.7855    -5.9615    -0.9760 H             1 RES     
     586 H          -29.7887    -5.9600     0.7952 H             1 RES     
     587 H          -28.5868    -8.1624    -0.9613 H             1 RES     
     588 H          -30.1294    -8.2551    -0.0835 H             1 RES     
     589 H          -28.5993    -8.1558     0.8115 H             1 RES     
     590 H          -33.6491     7.1768     0.1387 H             1 RES     
     591 H          -33.6160     6.9196    -1.6938 H             1 RES     
     592 H          -35.5656     9.4532    -0.2209 H             1 RES     
     593 H          -36.0512    10.5214    -1.9649 H             1 RES     
     594 H          -35.2535     9.2102    -2.9927 H             1 RES     
     595 H          -33.0683    10.0917    -2.0584 H             1 RES     
     596 H          -34.0713    11.3912    -1.2804 H             1 RES     
     597 H          -34.6967    12.3674    -3.0320 H             1 RES     
     598 H          -33.8314    11.1156    -4.0475 H             1 RES     
     599 H          -32.5073    13.1840    -2.1093 H             1 RES     
     600 H          -32.3365    13.0715    -3.8000 H             1 RES     
     601 H          -31.6752    11.7784    -2.7270 H             1 RES     
     602 H          -37.2328     7.6293    -0.2216 H             1 RES     
     603 H          -37.1640     7.5114    -1.8391 H             1 RES     
     604 H          -37.9338     9.7420     0.2617 H             1 RES     
     605 H          -38.9838     8.7420    -0.7519 H             1 RES     
     606 H          -37.9440    10.0135    -1.4934 H             1 RES     
     607 H          -34.5290     0.4146    -0.1286 H             1 RES     
     608 H          -39.7621     0.1594    -1.0980 H             1 RES     
     609 H          -39.6436     0.2168     0.7158 H             1 RES     
     610 H          -38.6340    -2.0266    -1.0437 H             1 RES     
     611 H          -38.4026    -3.2395     1.1295 H             1 RES     
     612 H          -38.9608    -1.8119     2.0001 H             1 RES     
     613 H          -36.4493    -1.9950     0.2608 H             1 RES     
     614 H          -36.4784    -2.1331     2.0413 H             1 RES     
     615 H          -36.8910    -0.6236     1.3122 H             1 RES     
     616 H          -41.1256    -1.7899    -1.0676 H             1 RES     
     617 H          -41.1566    -1.7955     0.6940 H             1 RES     
     618 H          -40.1502    -4.0967     0.6990 H             1 RES     
     619 H          -40.0831    -4.0619    -1.0641 H             1 RES     
     620 H          -42.5854    -3.8427    -1.0925 H             1 RES     
     621 H          -42.5947    -3.8433     0.6787 H             1 RES     
     622 H          -41.5197    -6.1110    -1.0769 H             1 RES     
     623 H          -43.0682    -6.1129    -0.2046 H             1 RES     
     624 H          -41.5381    -6.1059     0.6959 H             1 RES     
     625 H          -45.6620     9.5035     0.0197 H             1 RES     
     626 H          -45.6443     9.2424    -1.8098 H             1 RES     
     627 H          -47.4399    11.8867    -0.3398 H             1 RES     
     628 H          -47.8566    12.9837    -2.0843 H             1 RES     
     629 H          -47.1347    11.6279    -3.1105 H             1 RES     
     630 H          -44.9045    12.3756    -2.1667 H             1 RES     
     631 H          -45.8303    13.7318    -1.3906 H             1 RES     
     632 H          -46.3912    14.7452    -3.1443 H             1 RES     
     633 H          -45.5987    13.4450    -4.1580 H             1 RES     
     634 H          -44.1603    15.4299    -2.2144 H             1 RES     
     635 H          -43.9915    15.3084    -3.9048 H             1 RES     
     636 H          -43.4111    13.9778    -2.8309 H             1 RES     
     637 H          -49.2120    10.1662    -0.3457 H             1 RES     
     638 H          -49.1459    10.0433    -1.9629 H             1 RES     
     639 H          -49.7882    12.3158     0.1361 H             1 RES     
     640 H          -50.8930    11.3803    -0.8806 H             1 RES     
     641 H          -49.7779    12.5886    -1.6186 H             1 RES     
     642 H          -46.9443     2.8034    -0.2484 H             1 RES     
     643 H          -52.1803     2.8605    -1.2340 H             1 RES     
     644 H          -52.0641     2.9097     0.5802 H             1 RES     
     645 H          -51.1844     0.6111    -1.1780 H             1 RES     
     646 H          -51.0322    -0.6146     0.9950 H             1 RES     
     647 H          -51.5072     0.8431     1.8650 H             1 RES     
     648 H          -49.0057     0.5120     0.1331 H             1 RES     
     649 H          -49.0484     0.3748     1.9135 H             1 RES     
     650 H          -49.3682     1.9066     1.1843 H             1 RES     
     651 H          -53.6574     0.9957    -1.2092 H             1 RES     
     652 H          -53.6941     0.9909     0.5522 H             1 RES     
     653 H          -52.8264    -1.3661     0.5586 H             1 RES     
     654 H          -52.7519    -1.3343    -1.2043 H             1 RES     
     655 H          -55.2367    -0.9667    -1.2401 H             1 RES     
     656 H          -55.2515    -0.9677     0.5310 H             1 RES     
     657 H          -54.3079    -3.2943    -1.2230 H             1 RES     
     658 H          -55.8564    -3.2046    -0.3554 H             1 RES     
     659 H          -54.3314    -3.2892     0.5498 H             1 RES     
     660 H          -57.5148    12.5409    -0.1337 H             1 RES     
     661 H          -57.5128    12.2775    -1.9603 H             1 RES     
     662 H          -59.1476    15.0222    -0.4918 H             1 RES     
     663 H          -59.4940    16.1444    -2.2361 H             1 RES     
     664 H          -58.8506    14.7490    -3.2617 H             1 RES     
     665 H          -56.5834    15.3602    -2.3079 H             1 RES     
     666 H          -57.4289    16.7683    -1.5333 H             1 RES     
     667 H          -57.9231    17.8152    -3.2885 H             1 RES     
     668 H          -57.2062    16.4712    -4.3010 H             1 RES     
     669 H          -55.6587    18.3656    -2.3514 H             1 RES     
     670 H          -55.4923    18.2357    -4.0415 H             1 RES     
     671 H          -54.9949    16.8722    -2.9672 H             1 RES     
     672 H          -61.0185    13.4115    -0.5032 H             1 RES     
     673 H          -60.9555    13.2841    -2.1203 H             1 RES     
     674 H          -61.4679    15.5905    -0.0221 H             1 RES     
     675 H          -62.6235    14.7227    -1.0421 H             1 RES     
     676 H          -61.4371    15.8636    -1.7762 H             1 RES     
     677 H          -59.1950     5.9268    -0.4044 H             1 RES     
     678 H          -64.4152     6.2960    -1.4059 H             1 RES     
     679 H          -64.3019     6.3368     0.4087 H             1 RES     
     680 H          -63.5552     3.9913    -1.3491 H             1 RES     
     681 H          -63.4829     2.7570     0.8233 H             1 RES     
     682 H          -63.8729     4.2398     1.6932 H             1 RES     
     683 H          -61.3903     3.7616    -0.0315 H             1 RES     
     684 H          -61.4465     3.6259     1.7486 H             1 RES     
     685 H          -61.6724     5.1746     1.0199 H             1 RES     
     686 H          -66.0008     4.5224    -1.3873 H             1 RES     
     687 H          -66.0432     4.5184     0.3740 H             1 RES     
     688 H          -65.3172     2.1140     0.3807 H             1 RES     
     689 H          -65.2357     2.1426    -1.3819 H             1 RES     
     690 H          -67.6940     2.6575    -1.4248 H             1 RES     
     691 H          -67.7142     2.6560     0.3463 H             1 RES     
     692 H          -66.9054     0.2787    -1.4071 H             1 RES     
     693 H          -68.4485     0.4598    -0.5441 H             1 RES     
     694 H          -66.9340     0.2839     0.3656 H             1 RES     
     695 H          -69.1765    16.2688    -0.2942 H             1 RES     
     696 H          -69.1647    16.0144    -2.1303 H             1 RES     
     697 H          -70.6516    18.8532    -0.6698 H             1 RES     
     698 H          -70.9229    19.9915    -2.4152 H             1 RES     
     699 H          -70.3618    18.5606    -3.4395 H             1 RES     
     700 H          -68.0625    19.0407    -2.4858 H             1 RES     
     701 H          -68.8265    20.4974    -1.7137 H             1 RES     
     702 H          -69.2520    21.5700    -3.4674 H             1 RES     
     703 H          -68.6136    20.1849    -4.4783 H             1 RES     
     704 H          -66.9605    21.9831    -2.5228 H             1 RES     
     705 H          -66.7965    21.8434    -4.2120 H             1 RES     
     706 H          -66.3863    20.4523    -3.1362 H             1 RES     
     707 H          -72.6174    17.3540    -0.6911 H             1 RES     
     708 H          -72.5550    17.2292    -2.3082 H             1 RES     
     709 H          -72.9353    19.5579    -0.2077 H             1 RES     
     710 H          -74.1364    18.7617    -1.2342 H             1 RES     
     711 H          -72.8796    19.8281    -1.9625 H             1 RES     
     712 H          -71.2377     9.7731    -0.5935 H             1 RES     
     713 H          -76.4237    10.4531    -1.6101 H             1 RES     
     714 H          -76.3136    10.4869     0.2049 H             1 RES     
     715 H          -75.7025     8.1013    -1.5512 H             1 RES     
     716 H          -75.7104     6.8648     0.6211 H             1 RES     
     717 H          -76.0141     8.3681     1.4901 H             1 RES     
     718 H          -73.5591     7.7431    -0.2271 H             1 RES     
     719 H          -73.6287     7.6109     1.5528 H             1 RES     
     720 H          -73.7598     9.1703     0.8238 H             1 RES     
     721 H          -78.1120     8.7771    -1.5967 H             1 RES     
     722 H          -78.1599     8.7755     0.1645 H             1 RES     
     723 H          -77.5784     6.3322     0.1728 H             1 RES     
     724 H          -77.4899     6.3560    -1.5895 H             1 RES     
     725 H          -79.9131     7.0163    -1.6398 H             1 RES     
     726 H          -79.9388     7.0160     0.1312 H             1 RES     
     727 H          -79.2676     4.5948    -1.6202 H             1 RES     
     728 H          -80.7998     4.8674    -0.7618 H             1 RES     
     729 H          -79.3012     4.6016     0.1524 H             1 RES     
     730 H          -80.5828    20.6935    -0.5129 H             1 RES     
     731 H          -80.5860    20.4388    -2.3466 H             1 RES     
     732 H          -81.9026    23.3590    -0.8868 H             1 RES     
     733 H          -82.0995    24.5139    -2.6319 H             1 RES     
     734 H          -81.6204    23.0530    -3.6556 H             1 RES     
     735 H          -79.3011    23.3929    -2.6910 H             1 RES     
     736 H          -79.9794    24.8914    -1.9196 H             1 RES     
     737 H          -80.3338    25.9899    -3.6743 H             1 RES     
     738 H          -79.7751    24.5706    -4.6846 H             1 RES     
     739 H          -78.0257    26.2653    -2.7209 H             1 RES     
     740 H          -77.8642    26.1180    -4.4098 H             1 RES     
     741 H          -77.5409    24.7039    -3.3344 H             1 RES     
     742 H          -83.9532    21.9800    -0.9166 H             1 RES     
     743 H          -83.8928    21.8517    -2.5336 H             1 RES     
     744 H          -84.1419    24.1978    -0.4323 H             1 RES     
     745 H          -85.3848    23.4754    -1.4636 H             1 RES     
     746 H          -84.0646    24.4664    -2.1864 H             1 RES     
     747 H          -83.0293    14.3307    -0.8226 H             1 RES     
     748 H          -88.1617    15.3192    -1.8578 H             1 RES     
     749 H          -88.0567    15.3445    -0.0424 H             1 RES     
     750 H          -87.5821    12.9286    -1.7993 H             1 RES     
     751 H          -87.6719    11.6923     0.3712 H             1 RES     
     752 H          -87.8888    13.2101     1.2412 H             1 RES     
     753 H          -85.4689    12.4419    -0.4677 H             1 RES     
     754 H          -85.5530    12.3121     1.3117 H             1 RES     
     755 H          -85.5882    13.8773     0.5842 H             1 RES     
     756 H          -89.9469    13.7468    -1.8529 H             1 RES     
     757 H          -90.0015    13.7461    -0.0919 H             1 RES     
     758 H          -89.5666    11.2724    -0.0847 H             1 RES     
     759 H          -89.4701    11.2929    -1.8467 H             1 RES     
     760 H          -91.8495    12.0965    -1.9051 H             1 RES     
     761 H          -91.8818    12.0956    -0.1342 H             1 RES     
     762 H          -91.3494     9.6408    -1.8864 H             1 RES     
     763 H          -92.8659    10.0031    -1.0333 H             1 RES     
     764 H          -91.3893     9.6475    -0.1139 H             1 RES     
     765 H          -91.7042    25.7900    -0.7684 H             1 RES     
     766 H          -91.7223    25.5363    -2.5993 H             1 RES     
     767 H          -92.8638    28.5268    -1.1387 H             1 RES     
     768 H          -92.9854    29.6948    -2.8826 H             1 RES     
     769 H          -92.5899    28.2092    -3.9067 H             1 RES     
     770 H          -90.2593    28.4074    -2.9304 H             1 RES     
     771 H          -90.8496    29.9423    -2.1591 H             1 RES     
     772 H          -91.1311    31.0630    -3.9144 H             1 RES     
     773 H          -90.6540    29.6145    -4.9247 H             1 RES     
     774 H          -88.8148    31.1995    -2.9520 H             1 RES     
     775 H          -88.6559    31.0452    -4.6406 H             1 RES     
     776 H          -88.4210    29.6129    -3.5664 H             1 RES     
     777 H          -94.9918    27.2733    -1.1771 H             1 RES     
     778 H          -94.9340    27.1421    -2.7940 H             1 RES     
     779 H          -95.0508    29.4972    -0.6912 H             1 RES     
     780 H          -96.3309    28.8512    -1.7273 H             1 RES     
     781 H          -94.9520    29.7635    -2.4441 H             1 RES     
     782 H          -94.5276    19.5829    -1.0902 H             1 RES     
     783 H          -99.5879    20.8769    -2.1435 H             1 RES     
     784 H          -99.4887    20.8934    -0.3277 H             1 RES     
     785 H          -99.1521    18.4559    -2.0866 H             1 RES     
     786 H          -99.3239    17.2243     0.0816 H             1 RES     
     787 H          -99.4533    18.7511     0.9531 H             1 RES     
     788 H          -97.0769    17.8423    -0.7478 H             1 RES     
     789 H          -97.1755    17.7153     1.0311 H             1 RES     
     790 H          -97.1145    19.2809     0.3060 H             1 RES     
     791 H         -101.4637    19.4137    -2.1479 H             1 RES     
     792 H         -101.5251    19.4139    -0.3872 H             1 RES     
     793 H         -101.2384    16.9187    -0.3822 H             1 RES     
     794 H         -101.1341    16.9357    -2.1437 H             1 RES     
     795 H         -103.4611    17.8798    -2.2099 H             1 RES     
     796 H         -103.5003    17.8785    -0.4391 H             1 RES     
     797 H         -103.1084    15.3987    -2.1932 H             1 RES     
     798 H         -104.6039    15.8497    -1.3453 H             1 RES     
     799 H         -103.1547    15.4054    -0.4209 H             1 RES     
     800 H         -102.5012    31.5415    -1.0581 H             1 RES     
     801 H         -102.5338    31.2902    -2.8865 H             1 RES     
     802 H         -103.4966    34.3395    -1.4230 H             1 RES     
     803 H         -103.5423    35.5164    -3.1646 H             1 RES     
     804 H         -103.2307    34.0114    -4.1901 H             1 RES     
     805 H         -100.8976    34.0671    -3.2018 H             1 RES     
     806 H         -101.3979    35.6329    -2.4300 H             1 RES     
     807 H         -101.6048    36.7717    -4.1853 H             1 RES     
     808 H         -101.2109    35.2992    -5.1962 H             1 RES     
     809 H          -99.2886    36.7689    -3.2139 H             1 RES     
     810 H          -99.1327    36.6081    -4.9023 H             1 RES     
     811 H          -98.9873    35.1627    -3.8298 H             1 RES     
     812 H         -105.6960    33.2129    -1.4701 H             1 RES     
     813 H         -105.6402    33.0808    -3.0874 H             1 RES     
     814 H         -105.6264    35.4366    -0.9827 H             1 RES     
     815 H         -106.9529    34.8712    -2.0155 H             1 RES     
     816 H         -105.5097    35.6984    -2.7323 H             1 RES     
     817 H         -105.6814    25.5052    -1.3939 H             1 RES     
     818 H         -110.6528    27.0918    -2.4673 H             1 RES     
     819 H         -110.5587    27.0989    -0.6491 H             1 RES     
     820 H         -110.3718    24.6551    -2.4116 H             1 RES     
     821 H         -110.6249    23.4377    -0.2429 H             1 RES     
     822 H         -110.6664    24.9706     0.6279 H             1 RES     
     823 H         -108.3407    23.9249    -1.0637 H             1 RES     
     824 H         -108.4541    23.7994     0.7149 H             1 RES     
     825 H         -108.2978    25.3595    -0.0043 H             1 RES     
     826 H         -112.6196    25.7581    -2.4790 H             1 RES     
     827 H         -112.6874    25.7593    -0.7189 H             1 RES     
     828 H         -112.5527    23.2514    -0.7172 H             1 RES     
     829 H         -112.4406    23.2648    -2.4783 H             1 RES     
     830 H         -114.7063    24.3470    -2.5519 H             1 RES     
     831 H         -114.7526    24.3453    -0.7812 H             1 RES     
     832 H         -114.5022    21.8491    -2.5382 H             1 RES     
     833 H         -115.9716    22.3871    -1.6955 H             1 RES     
     834 H         -114.5551    21.8558    -0.7662 H             1 RES     
     835 H         -117.1503    33.0443    -2.6737 H             1 RES     
     836 H         -117.1675    32.9040    -0.8485 H             1 RES     
     837 H         -119.4962    32.2875    -2.6959 H             1 RES     
     838 H         -120.8022    32.2817    -0.5645 H             1 RES     
     839 H         -119.3233    32.5596     0.3526 H             1 RES     
     840 H         -118.4759    30.3433    -0.4144 H             1 RES     
     841 H         -119.9066    30.1506    -1.4441 H             1 RES     
     842 H         -121.2706    30.1972     0.6800 H             1 RES     
     843 H         -119.7736    30.4409     1.6018 H             1 RES     
     844 H         -120.3411    28.0382    -0.2102 H             1 RES     
     845 H         -120.3976    28.0374     1.5689 H             1 RES     
     846 H         -118.8573    28.2924     0.7226 H             1 RES     
     847 H         -118.8220    34.7042    -2.6759 H             1 RES     
     848 H         -118.8792    34.7187    -0.9154 H             1 RES     
     849 H         -121.2495    34.1193    -2.7558 H             1 RES     
     850 H         -120.9615    35.6530    -1.8938 H             1 RES     
     851 H         -121.3284    34.1969    -0.9859 H             1 RES     
     852 H         -112.5514    35.5657    -1.5890 H             1 RES     
     853 H         -108.3591    32.4047    -1.4786 H             1 RES     
     854 H         -104.3146    30.8724    -1.9603 H             1 RES     
     855 H         -104.4936    30.5559    -0.0877 H             1 RES     
     856 H         -104.1691    32.4692    -1.3718 H             1 RES     
     857 H         -104.4128    34.4538     0.5252 H             1 RES     
     858 H         -104.3081    33.0323     1.5197 H             1 RES     
     859 H         -106.8022    33.9675    -0.1432 H             1 RES     
     860 H         -106.5981    34.1189     1.4836 H             1 RES     
     861 H         -106.7516    32.4827     0.6483 H             1 RES     
     862 H         -101.7799    33.4485    -1.2611 H             1 RES     
     863 H         -101.6296    32.7302     0.3871 H             1 RES     
     864 H         -101.7997    35.2133     0.6746 H             1 RES     
     865 H         -102.1533    35.4603    -0.9351 H             1 RES     
     866 H          -99.8179    34.0366    -1.6264 H             1 RES     
     867 H          -99.6556    33.9168     0.0672 H             1 RES     
     868 H          -99.9971    36.5006    -1.5833 H             1 RES     
     869 H          -98.4715    35.8833    -0.9638 H             1 RES     
     870 H          -99.8735    36.4627     0.0910 H             1 RES     
     871 H          -97.5785    26.3276    -1.1758 H             1 RES     
     872 H          -93.4752    25.0145    -1.6729 H             1 RES     
     873 H          -93.6302    24.6936     0.2014 H             1 RES     
     874 H          -93.4248    26.6168    -1.0877 H             1 RES     
     875 H          -93.7780    28.5876     0.8120 H             1 RES     
     876 H          -93.5829    27.1752     1.8059 H             1 RES     
     877 H          -96.1326    27.9595     0.1531 H             1 RES     
     878 H          -95.9350    28.1258     1.7782 H             1 RES     
     879 H          -95.9942    26.4814     0.9470 H             1 RES     
     880 H          -91.0939    27.7423    -0.9900 H             1 RES     
     881 H          -90.8985    27.0385     0.6642 H             1 RES     
     882 H          -91.2122    29.5023     0.9468 H             1 RES     
     883 H          -91.5871    29.7283    -0.6614 H             1 RES     
     884 H          -89.1725    28.4424    -1.3600 H             1 RES     
     885 H          -88.9985    28.3362     0.3335 H             1 RES     
     886 H          -89.4995    30.8922    -1.3188 H             1 RES     
     887 H          -87.9371    30.3682    -0.7048 H             1 RES     
     888 H          -89.3673    30.8638     0.3549 H             1 RES     
     889 H          -86.4774    20.8814    -0.9054 H             1 RES     
     890 H          -82.3046    19.8131    -1.4193 H             1 RES     
     891 H          -82.4343    19.4887     0.4568 H             1 RES     
     892 H          -82.3506    21.4161    -0.8366 H             1 RES     
     893 H          -82.8116    23.3662     1.0664 H             1 RES     
     894 H          -82.5272    21.9681     2.0591 H             1 RES     
     895 H          -85.1268    22.5976     0.4167 H             1 RES     
     896 H          -84.9325    22.7787     2.0403 H             1 RES     
     897 H          -84.8973    21.1316     1.2118 H             1 RES     
     898 H          -80.0859    22.6834    -0.7509 H             1 RES     
     899 H          -79.8465    21.9964     0.9089 H             1 RES     
     900 H          -80.3015    24.4330     1.1875 H             1 RES     
     901 H          -80.6968    24.6367    -0.4192 H             1 RES     
     902 H          -78.2111    23.4933    -1.1257 H             1 RES     
     903 H          -78.0263    23.4007     0.5676 H             1 RES     
     904 H          -78.6845    25.9201    -1.0852 H             1 RES     
     905 H          -77.0911    25.4910    -0.4769 H             1 RES     
     906 H          -78.5445    25.9011     0.5878 H             1 RES     
     907 H          -75.0701    16.1067    -0.6704 H             1 RES     
     908 H          -70.8426    15.2873    -1.2014 H             1 RES     
     909 H          -70.9473    14.9598     0.6763 H             1 RES     
     910 H          -70.9849    16.8851    -0.6199 H             1 RES     
     911 H          -71.5525    18.8074     1.2864 H             1 RES     
     912 H          -71.1801    17.4290     2.2777 H             1 RES     
     913 H          -73.8198    17.9011     0.6455 H             1 RES     
     914 H          -73.6301    18.0965     2.2677 H             1 RES     
     915 H          -73.5003    16.4526     1.4412 H             1 RES     
     916 H          -68.7954    18.2889    -0.5456 H             1 RES     
     917 H          -68.5131    17.6210     1.1192 H             1 RES     
     918 H          -69.1072    20.0230     1.3944 H             1 RES     
     919 H          -69.5216    20.2027    -0.2106 H             1 RES     
     920 H          -66.9734    19.2063    -0.9256 H             1 RES     
     921 H          -66.7785    19.1275     0.7675 H             1 RES     
     922 H          -67.5913    21.6012    -0.8848 H             1 RES     
     923 H          -65.9726    21.2685    -0.2823 H             1 RES     
     924 H          -67.4440    21.5919     0.7875 H             1 RES     
     925 H          -63.3978    12.0206    -0.4703 H             1 RES     
     926 H          -59.1319    11.4580    -1.0060 H             1 RES     
     927 H          -59.2064    11.1194     0.8696 H             1 RES     
     928 H          -59.3581    13.0470    -0.4241 H             1 RES     
     929 H          -60.0387    14.9296     1.4700 H             1 RES     
     930 H          -59.5875    13.5794     2.4673 H             1 RES     
     931 H          -62.2508    13.8905     0.8384 H             1 RES     
     932 H          -62.0702    14.0943     2.4617 H             1 RES     
     933 H          -61.8439    12.4633     1.6339 H             1 RES     
     934 H          -57.2678    14.5631    -0.3520 H             1 RES     
     935 H          -56.9293    13.9112     1.2956 H             1 RES     
     936 H          -57.6783    16.2858     1.5782 H             1 RES     
     937 H          -58.1020    16.4319    -0.0268 H             1 RES     
     938 H          -55.5061    15.5960    -0.7483 H             1 RES     
     939 H          -55.2969    15.5288     0.9429 H             1 RES     
     940 H          -56.2621    17.9483    -0.7099 H             1 RES     
     941 H          -54.6255    17.7128    -0.1114 H             1 RES     
     942 H          -56.1099    17.9512     0.9625 H             1 RES     
     943 H          -51.5028     8.6366    -0.3060 H             1 RES     
     944 H          -47.2119     8.3269    -0.8569 H             1 RES     
     945 H          -47.2620     7.9882     1.0199 H             1 RES     
     946 H          -47.5331     9.8990    -0.2759 H             1 RES     
     947 H          -48.3173    11.7408     1.6236 H             1 RES     
     948 H          -47.7817    10.4198     2.6181 H             1 RES     
     949 H          -50.4654    10.5711     0.9989 H             1 RES     
     950 H          -50.2916    10.7878     2.6209 H             1 RES     
     951 H          -49.9717     9.1716     1.7940 H             1 RES     
     952 H          -45.5333    11.5426    -0.2128 H             1 RES     
     953 H          -45.1553    10.9138     1.4393 H             1 RES     
     954 H          -46.0390    13.2359     1.7211 H             1 RES     
     955 H          -46.4773    13.3580     0.1177 H             1 RES     
     956 H          -43.8368    12.6751    -0.6115 H             1 RES     
     957 H          -43.6204    12.6220     1.0796 H             1 RES     
     958 H          -44.7323    14.9786    -0.5712 H             1 RES     
     959 H          -43.0826    14.8415     0.0222 H             1 RES     
     960 H          -44.5754    14.9912     1.1005 H             1 RES     
     961 H          -39.4266     5.9662    -0.1755 H             1 RES     
     962 H          -35.1262     5.9107    -0.7420 H             1 RES     
     963 H          -35.1521     5.5729     1.1360 H             1 RES     
     964 H          -35.5414     7.4604    -0.1610 H             1 RES     
     965 H          -36.4264     9.2548     1.7442 H             1 RES     
     966 H          -35.8082     7.9679     2.7356 H             1 RES     
     967 H          -38.5027     7.9587     1.1261 H             1 RES     
     968 H          -38.3367     8.1877     2.7469 H             1 RES     
     969 H          -37.9239     6.5919     1.9203 H             1 RES     
     970 H          -33.6396     9.2255    -0.1064 H             1 RES     
     971 H          -33.2235     8.6218     1.5500 H             1 RES     
     972 H          -34.2383    10.8841     1.8315 H             1 RES     
     973 H          -34.6899    10.9811     0.2298 H             1 RES     
     974 H          -32.0139    10.4539    -0.5075 H             1 RES     
     975 H          -31.7911    10.4151     1.1833 H             1 RES     
     976 H          -33.0459    12.7005    -0.4645 H             1 RES     
     977 H          -31.3888    12.6622     0.1236 H             1 RES     
     978 H          -32.8847    12.7227     1.2066 H             1 RES     
     979 H          -27.2124     4.0186    -0.0830 H             1 RES     
     980 H          -22.9196     4.2291    -0.6648 H             1 RES     
     981 H          -22.9200     3.8750     1.2119 H             1 RES     
     982 H          -23.4303     5.7633    -0.0421 H             1 RES     
     983 H          -24.4130     7.4847     1.8326 H             1 RES     
     984 H          -23.7183     6.2384     2.8330 H             1 RES     
     985 H          -26.4025     6.0595     1.2149 H             1 RES     
     986 H          -26.2525     6.3029     2.8354 H             1 RES     
     987 H          -25.7418     4.7325     2.0105 H             1 RES     
     988 H          -21.6410     7.6013    -0.0040 H             1 RES     
     989 H          -21.1793     7.0455     1.6485 H             1 RES     
     990 H          -22.3186     9.2645     1.8994 H             1 RES     
     991 H          -22.7893     9.3068     0.3002 H             1 RES     
     992 H          -20.0809     8.9389    -0.4462 H             1 RES     
     993 H          -19.8523     8.9189     1.2432 H             1 RES     
     994 H          -21.2424    11.1250    -0.4001 H             1 RES     
     995 H          -19.5819    11.1856     0.1798 H             1 RES     
     996 H          -21.0732    11.1584     1.2694 H             1 RES     
     997 H          -14.9034     2.8018    -0.0274 H             1 RES     
     998 H          -10.6298     3.2550    -0.6269 H             1 RES     
     999 H          -10.6069     2.9207     1.2524 H             1 RES     
    1000 H          -11.2281     4.7432    -0.0423 H             1 RES     
    1001 H          -12.3045     6.4238     1.8747 H             1 RES     
    1002 H          -11.5281     5.2196     2.8588 H             1 RES     
    1003 H          -14.2154     4.8891     1.2691 H             1 RES     
    1004 H          -14.0668     5.1400     2.8878 H             1 RES     
    1005 H          -13.4729     3.6020     2.0597 H             1 RES     
    1006 H           -9.5439     6.7303    -0.0040 H             1 RES     
    1007 H           -9.0556     6.1829     1.6599 H             1 RES     
    1008 H          -10.3204     8.3052     1.9419 H             1 RES     
    1009 H          -10.7951     8.3487     0.3440 H             1 RES     
    1010 H           -8.0765     8.1390    -0.4115 H             1 RES     
    1011 H           -7.8425     8.1287     1.2786 H             1 RES     
    1012 H           -9.3695    10.2478    -0.3600 H             1 RES     
    1013 H           -7.7154    10.4074     0.2165 H             1 RES     
    1014 H           -9.2004    10.2893     1.3096 H             1 RES     
    1015 H           -2.5660     2.3672    -0.0203 H             1 RES     
    1016 H            1.7636     3.3267    -0.9573 H             1 RES     
    1017 H            1.6494     3.2552     0.8850 H             1 RES     
    1018 H            0.3125     5.2385    -0.9013 H             1 RES     
    1019 H           -0.1274     6.3674     1.2938 H             1 RES     
    1020 H            0.6784     5.0498     2.1489 H             1 RES     
    1021 H           -1.8059     4.7740     0.3952 H             1 RES     
    1022 H           -1.8271     4.9149     2.1783 H             1 RES     
    1023 H           -1.1225     3.5143     1.4599 H             1 RES     
    1024 H            2.8285     5.3999    -0.8924 H             1 RES     
    1025 H            2.8379     5.4080     0.8654 H             1 RES     
    1026 H            1.4613     7.5040     0.8619 H             1 RES     
    1027 H            1.4186     7.4611    -0.9025 H             1 RES     
    1028 H            3.9205     7.6798    -0.9064 H             1 RES     
    1029 H            3.9127     7.6806     0.8650 H             1 RES     
    1030 H            2.4693     9.7235    -0.9029 H             1 RES     
    1031 H            3.9846    10.0003    -0.0162 H             1 RES     
    1032 H            2.4714     9.7205     0.8697 H             1 RES     
@<TRIPOS>BOND
       1      924      408 1
       2      129      134 1
       3      560       61 1
       4      869      363 1
       5       20       21 1
       6      140      141 1
       7      164      165 1
       8      711      205 1
       9      212      213 1
      10      236      237 1
      11      260      261 1
      12      284      285 1
      13      821      323 1
      14      332      333 1
      15      405      406 1
      16      447      450 1
      17      975      452 1
      18      675      170 1
      19      668      167 1
      20      861      359 1
      21      737      237 1
      22      977      453 1
      23      614      114 1
      24      704      203 1
      25      782      282 1
      26      806      306 1
      27       82       83 1
      28     1016      491 1
      29      455      106 1
      30      757      255 1
      31     1007      480 1
      32      574       76 1
      33      588       83 1
      34      263      279 1
      35      424      178 1
      36      597       97 1
      37      699      200 1
      38      904      393 1
      39     1028      497 1
      40      556       58 1
      41      471       70 1
      42      522       24 1
      43      472       51 1
      44      783      286 1
      45      355      356 1
      46      952      435 1
      47      686      185 1
      48       56       57 1
      49      128      129 1
      50      200      201 1
      51      416      417 1
      52      474      484 1
      53     1008      481 1
      54      946      432 1
      55       11       12 1
      56       35       36 1
      57      107      108 1
      58      131      132 1
      59      179      180 1
      60      227      228 1
      61      251      252 1
      62      323      324 1
      63      347      348 1
      64      856      357 1
      65      976      453 1
      66       94       99 1
      67      583       81 1
      68      866      362 1
      69      795      292 1
      70      509        9 1
      71      989      465 1
      72      990      466 1
      73      857      358 1
      74      728      223 1
      75      849      345 1
      76      713      216 1
      77      804      305 1
      78      333      349 1
      79      217      220 1
      80      562       62 1
      81       88      104 1
      82      542       43 1
      83      230      242 1
      84      689      186 1
      85      750      252 1
      86      759      256 1
      87      874      372 1
      88      807      307 1
      89       57       58 1
      90      129      130 1
      91      676      170 1
      92      201      202 1
      93      225      226 1
      94      249      250 1
      95      369      370 1
      96       22       23 1
      97       46       47 1
      98      142      143 1
      99      190      191 1
     100      214      215 1
     101      262      263 1
     102      299      298 1
     103      334      335 1
     104      358      359 1
     105      406      407 1
     106       12       13 1
     107      132      133 1
     108      636      133 1
     109      156      157 1
     110      204      205 1
     111      228      229 1
     112      252      253 1
     113      488       14 1
     114      680      182 1
     115      380      281 1
     116      357      358 1
     117      163      164 1
     118      283      284 1
     119      382      261 1
     120      379      380 1
     121      897      389 1
     122      427      428 1
     123      475      476 1
     124      600       98 1
     125      312      314 1
     126      386      387 1
     127      893      388 1
     128      428      429 1
     129      535       30 1
     130      407      408 1
     131      527       27 1
     132      470       71 1
     133      335      347 1
     134      593       95 1
     135      900      391 1
     136      753      254 1
     137      621      117 1
     138      444      454 1
     139      755      254 1
     140      772      272 1
     141      287      290 1
     142      137      139 1
     143      748      251 1
     144      751      253 1
     145      867      362 1
     146      512       10 1
     147      102      104 1
     148      589       83 1
     149      446      447 1
     150      968      449 1
     151      426      157 1
     152      858      358 1
     153      997      472 1
     154      106      107 1
     155      671      168 1
     156      274      275 1
     157      277      279 1
     158      400      401 1
     159      947      433 1
     160      489      499 1
     161       16       17 1
     162       40       41 1
     163      533       29 1
     164      112      113 1
     165      398      224 1
     166      232      233 1
     167      747      247 1
     168      634      133 1
     169      256      257 1
     170      771      271 1
     171      902      392 1
     172      741      238 1
     173      928      417 1
     174      967      449 1
     175      984      463 1
     176      501        1 1
     177      473      474 1
     178      193      209 1
     179      691      187 1
     180      695      198 1
     181      855      356 1
     182     1017      491 1
     183       53       54 1
     184      125      126 1
     185      197      198 1
     186      922      408 1
     187      413      414 1
     188      878      374 1
     189      604      100 1
     190      242      244 1
     191      304      309 1
     192      578       79 1
     193     1006      480 1
     194      462      465 1
     195     1010      482 1
     196      935      420 1
     197      659      153 1
     198      851      345 1
     199     1001      478 1
     200      412      413 1
     201      957      437 1
     202      125      137 1
     203      552       48 1
     204       37       38 1
     205      109      110 1
     206      637      134 1
     207      181      182 1
     208      229      230 1
     209      603       99 1
     210      253      254 1
     211      325      326 1
     212      834      328 1
     213      349      350 1
     214      613      114 1
     215      640      135 1
     216      790      289 1
     217     1003      479 1
     218      950      434 1
     219       55       56 1
     220      127      128 1
     221      199      200 1
     222      319      320 1
     223      415      416 1
     224      469       73 1
     225       21       31 1
     226      457       86 1
     227      456      105 1
     228      573       76 1
     229      994      468 1
     230       53       69 1
     231       15       16 1
     232      207      208 1
     233      231      232 1
     234      255      256 1
     235      327      328 1
     236      444      445 1
     237      445      446 1
     238      447      448 1
     239      550       47 1
     240      155      154 1
     241      551       47 1
     242      756      255 1
     243      996      468 1
     244     1002      478 1
     245       55       67 1
     246       42       43 1
     247      186      187 1
     248      402      403 1
     249      827      325 1
     250      914      404 1
     251      955      436 1
     252      561       61 1
     253      654      151 1
     254        6        7 1
     255       54       55 1
     256      126      127 1
     257      150      151 1
     258      198      199 1
     259      439      143 1
     260      222      223 1
     261      246      247 1
     262      270      271 1
     263      778      274 1
     264      290      291 1
     265      342      343 1
     266      482      483 1
     267      147      150 1
     268      651      150 1
     269     1014      483 1
     270      352      353 1
     271      913      404 1
     272      448      449 1
     273      835      338 1
     274      930      418 1
     275      920      407 1
     276      898      390 1
     277      749      251 1
     278      123      139 1
     279      333      334 1
     280      472      473 1
     281      314      298 1
     282      383      259 1
     283      833      328 1
     284       32       34 1
     285      338      339 1
     286      624      118 1
     287      458      459 1
     288      497      498 1
     289      417      418 1
     290      642      142 1
     291      907      397 1
     292       34       35 1
     293      130      131 1
     294      202      203 1
     295       59       64 1
     296      683      184 1
     297      396      227 1
     298      780      275 1
     299      889      382 1
     300      641      135 1
     301      460      461 1
     302      322      325 1
     303      339      344 1
     304       69       70 1
     305       93       94 1
     306      165      166 1
     307      285      286 1
     308      309      310 1
     309      429      430 1
     310      477      478 1
     311      431      432 1
     312      503        6 1
     313      526       26 1
     314      182      185 1
     315      658      153 1
     316      825      324 1
     317      959      438 1
     318       80       81 1
     319      104      105 1
     320      176      177 1
     321      296      297 1
     322      320      321 1
     323      354      364 1
     324      392      393 1
     325      696      198 1
     326      120      121 1
     327      672      169 1
     328      192      193 1
     329      357      360 1
     330      727      223 1
     331      476      477 1
     332      155      156 1
     333      707      204 1
     334      272      273 1
     335      818      321 1
     336      371      372 1
     337      824      324 1
     338      467      468 1
     339     1022      494 1
     340      862      360 1
     341      409      410 1
     342      523       25 1
     343      890      386 1
     344      775      273 1
     345       75       76 1
     346       99      100 1
     347      471       52 1
     348      656      152 1
     349      291      292 1
     350      315      316 1
     351      387      388 1
     352      435      436 1
     353      953      435 1
     354      877      374 1
     355      440      141 1
     356       62       63 1
     357       86       87 1
     358      721      220 1
     359      302      303 1
     360      403      404 1
     361      969      449 1
     362      622      118 1
     363      814      310 1
     364      859      359 1
     365      880      375 1
     366      828      326 1
     367      581       80 1
     368       41       42 1
     369       89       90 1
     370      113      114 1
     371      185      186 1
     372      305      306 1
     373      332      351 1
     374      660      163 1
     375      411      210 1
     376      428      154 1
     377      401      402 1
     378      452      453 1
     379      413      189 1
     380      936      421 1
     381      608      111 1
     382      966      448 1
     383      177      178 1
     384      297      298 1
     385      489      490 1
     386      630      131 1
     387      166      167 1
     388      286      287 1
     389      382      383 1
     390      430      431 1
     391      478      479 1
     392      492      495 1
     393      265      277 1
     394      500        1 1
     395      487       16 1
     396      528       27 1
     397      432      435 1
     398     1020      493 1
     399      517       13 1
     400      940      423 1
     401      875      373 1
     402      383      384 1
     403      618      116 1
     404      932      419 1
     405      442      121 1
     406      653      151 1
     407      420      421 1
     408      945      431 1
     409     1009      481 1
     410      463      464 1
     411       90      102 1
     412      518       13 1
     413       67       69 1
     414      652      150 1
     415      999      476 1
     416      521       23 1
     417      785      287 1
     418     1013      483 1
     419      353      354 1
     420      427      156 1
     421      443      444 1
     422      499        3 1
     423      520       23 1
     424      892      387 1
     425      594       95 1
     426       24       29 1
     427      648      149 1
     428      679      181 1
     429     1018      492 1
     430      541       43 1
     431      178      179 1
     432      143      144 1
     433       23       24 1
     434      167      168 1
     435      688      186 1
     436      215      216 1
     437      239      240 1
     438      263      264 1
     439      287      288 1
     440      322      323 1
     441      335      336 1
     442      629      130 1
     443      884      377 1
     444      381      262 1
     445      469      470 1
     446      485       36 1
     447      746      240 1
     448       50       51 1
     449       74       75 1
     450      602       99 1
     451      122      123 1
     452      633      132 1
     453      194      195 1
     454      776      273 1
     455      314      315 1
     456      949      434 1
     457      740      238 1
     458      576       78 1
     459      645      147 1
     460      919      406 1
     461       77       78 1
     462      317      318 1
     463      871      367 1
     464      437      438 1
     465      784      286 1
     466      796      292 1
     467       42       45 1
     468      632      132 1
     469      722      220 1
     470      402      405 1
     471      439      440 1
     472      770      271 1
     473      670      168 1
     474      979      457 1
     475      674      170 1
     476      701      201 1
     477      702      202 1
     478      665      166 1
     479      927      416 1
     480      717      218 1
     481      744      240 1
     482      798      293 1
     483      829      326 1
     484     1021      494 1
     485     1026      496 1
     486      534       30 1
     487      199      204 1
     488      971      450 1
     489      754      254 1
     490     1024      495 1
     491      667      167 1
     492      649      149 1
     493      817      317 1
     494      852      350 1
     495      951      434 1
     496      555       58 1
     497      802      304 1
     498      765      268 1
     499      569       65 1
     500      587       83 1
     501      800      303 1
     502      585       82 1
     503      486       35 1
     504      443      442 1
     505      532       29 1
     506       76       77 1
     507      316      317 1
     508      516       12 1
     509      938      422 1
     510      885      377 1
     511      808      307 1
     512      493      494 1
     513       90       91 1
     514       73       74 1
     515       97       98 1
     516      601       98 1
     517      162      163 1
     518      282      283 1
     519      306      307 1
     520      886      378 1
     521      910      402 1
     522      454      455 1
     523     1019      493 1
     524      577       78 1
     525      894      388 1
     526      537       37 1
     527      231      241 1
     528      846      343 1
     529      384      394 1
     530      692      188 1
     531      843      342 1
     532      865      361 1
     533      998      476 1
     534      301      311 1
     535      745      240 1
     536      545       44 1
     537      368      294 1
     538        7       10 1
     539       92       93 1
     540      473       49 1
     541      519       13 1
     542      116      117 1
     543      620      117 1
     544      607      107 1
     545      615      114 1
     546      911      403 1
     547      474      475 1
     548      356      357 1
     549      948      433 1
     550      524       25 1
     551      661      163 1
     552      788      289 1
     553      853      352 1
     554      454      108 1
     555      872      371 1
     556      992      467 1
     557       10       11 1
     558      706      203 1
     559      226      227 1
     560      250      251 1
     561      763      258 1
     562      766      268 1
     563      762      258 1
     564      369      379 1
     565      760      257 1
     566      926      416 1
     567     1025      495 1
     568      906      393 1
     569      826      325 1
     570      425      176 1
     571       56       66 1
     572      575       77 1
     573      412      191 1
     574      179      189 1
     575      714      216 1
     576      595       96 1
     577      801      303 1
     578      850      345 1
     579        8        9 1
     580       32       33 1
     581      152      153 1
     582      409      213 1
     583      160      172 1
     584      538       41 1
     585      224      225 1
     586      248      249 1
     587       72       73 1
     588       96       97 1
     589      669      168 1
     590      288      289 1
     591      312      313 1
     592      384      385 1
     593      700      201 1
     594      432      433 1
     595      480      481 1
     596      465      466 1
     597     1015      487 1
     598      546       45 1
     599      510        9 1
     600      639      135 1
     601      718      219 1
     602      774      273 1
     603      531       28 1
     604      848      344 1
     605      196      206 1
     606       14       15 1
     607       38       39 1
     608      110      111 1
     609      134      135 1
     610      182      183 1
     611      698      200 1
     612      230      231 1
     613      326      327 1
     614      331      332 1
     615      819      321 1
     616     1031      498 1
     617       74       84 1
     618      732      234 1
     619      887      378 1
     620      488      489 1
     621      610      112 1
     622      513       11 1
     623      572       72 1
     624     1032      498 1
     625      567       64 1
     626      462      463 1
     627      337      338 1
     628      457      458 1
     629      316      365 1
     630      491      492 1
     631       36       37 1
     632       60       61 1
     633       84       85 1
     634      108      109 1
     635      180      181 1
     636      300      301 1
     637      377      378 1
     638      492      493 1
     639     1023      494 1
     640     1029      497 1
     641     1030      498 1
     642       67       68 1
     643       91       92 1
     644      307      308 1
     645      964      447 1
     646      499      500 1
     647        4       14 1
     648      845      343 1
     649      414      415 1
     650      381      280 1
     651      844      343 1
     652      315      366 1
     653      870      363 1
     654      673      169 1
     655      459      469 1
     656      719      219 1
     657      842      342 1
     658      854      356 1
     659      172      174 1
     660      974      452 1
     661      901      391 1
     662       18       34 1
     663      925      412 1
     664      752      253 1
     665      809      308 1
     666      563       62 1
     667      557       59 1
     668      647      148 1
     669      631      131 1
     670      599       98 1
     671      982      462 1
     672      234      239 1
     673      617      115 1
     674      840      341 1
     675      860      359 1
     676     1005      479 1
     677      693      188 1
     678      733      235 1
     679      973      451 1
     680      418      419 1
     681      590       93 1
     682       58       59 1
     683      370      371 1
     684      466      467 1
     685      646      148 1
     686      249      259 1
     687      793      291 1
     688       64       65 1
     689       88       89 1
     690      160      161 1
     691      486       17 1
     692      764      258 1
     693      280      281 1
     694      304      305 1
     695      376      377 1
     696      424      425 1
     697      507        8 1
     698      908      401 1
     699      987      464 1
     700      941      423 1
     701      811      308 1
     702      554       48 1
     703      379      283 1
     704      451      452 1
     705      794      291 1
     706      207      209 1
     707      548       46 1
     708      502        2 1
     709      837      339 1
     710      864      361 1
     711      960      438 1
     712        5        6 1
     713       29       30 1
     714      221      222 1
     715      508        9 1
     716      592       94 1
     717      245      246 1
     718      269      270 1
     719      341      342 1
     720      961      442 1
     721      461      462 1
     722      988      465 1
     723     1000      477 1
     724      571       65 1
     725      570       65 1
     726      623      118 1
     727      394      248 1
     728      677      177 1
     729      484       38 1
     730      981      461 1
     731      228      244 1
     732       61       62 1
     733       85       86 1
     734      157      158 1
     735      277      278 1
     736      301      302 1
     737      373      374 1
     738      559       60 1
     739      421      422 1
     740      506        8 1
     741      663      165 1
     742      986      464 1
     743      841      341 1
     744      266      276 1
     745      655      152 1
     746      151      152 1
     747        7        8 1
     748       77       80 1
     749      175      176 1
     750      247      248 1
     751      271      272 1
     752      295      296 1
     753        4        5 1
     754      558       60 1
     755      705      203 1
     756      761      257 1
     757      350      351 1
     758      873      371 1
     759      429      439 1
     760      917      405 1
     761       39       40 1
     762      111      112 1
     763      183      184 1
     764      779      275 1
     765      399      400 1
     766      903      392 1
     767      822      323 1
     768      731      233 1
     769       52       53 1
     770       91      101 1
     771      124      125 1
     772      148      149 1
     773      196      197 1
     774      220      221 1
     775      244      245 1
     776      268      269 1
     777      340      341 1
     778      364      365 1
     779      644      146 1
     780      876      373 1
     781      411      192 1
     782      909      401 1
     783      112      115 1
     784      616      115 1
     785       18       19 1
     786       25       26 1
     787       49       50 1
     788      121      122 1
     789      145      146 1
     790      193      194 1
     791      210      211 1
     792      217      218 1
     793      234      235 1
     794      396      245 1
     795      265      266 1
     796      443      119 1
     797      318      364 1
     798      544       44 1
     799       78       79 1
     800      102      103 1
     801      174      175 1
     802      144      154 1
     803      294      295 1
     804      318      319 1
     805      336      346 1
     806      896      389 1
     807      390      391 1
     808      580       79 1
     809      387      390 1
     810      912      403 1
     811      441      140 1
     812      921      407 1
     813      367      368 1
     814      330      331 1
     815      939      422 1
     816      547       45 1
     817      963      446 1
     818      662      164 1
     819      543       44 1
     820      553       48 1
     821        3        4 1
     822      703      202 1
     823      456       87 1
     824      812      309 1
     825      678      181 1
     826     1012      483 1
     827     1011      482 1
     828     1004      479 1
     829      582       80 1
     830      266      267 1
     831      816      310 1
     832      164      169 1
     833      980      461 1
     834      666      166 1
     835      934      420 1
     836      490      491 1
     837      863      360 1
     838      565       63 1
     839      361      362 1
     840      985      464 1
     841      319      329 1
     842      789      289 1
     843      195      207 1
     844       21       22 1
     845       45       46 1
     846      117      118 1
     847      141      142 1
     848      441      122 1
     849      189      190 1
     850      213      214 1
     851      237      238 1
     852      729      223 1
     853      261      262 1
     854      767      269 1
     855      786      288 1
     856      918      406 1
     857      931      419 1
     858      787      288 1
     859      417      420 1
     860      730      233 1
     861       24       25 1
     862      144      145 1
     863      216      217 1
     864      264      265 1
     865      336      337 1
     866      360      361 1
     867      477      480 1
     868      515       12 1
     869       59       60 1
     870      638      134 1
     871      299      300 1
     872      738      237 1
     873      344      345 1
     874      372      373 1
     875      905      393 1
     876      978      453 1
     877      995      468 1
     878      715      217 1
     879      366      297 1
     880      831      327 1
     881       27       28 1
     882       51       52 1
     883      123      124 1
     884      147      148 1
     885      195      196 1
     886      267      268 1
     887      339      340 1
     888      459      460 1
     889      657      153 1
     890      612      113 1
     891      882      376 1
     892      956      437 1
     893      823      324 1
     894      529       28 1
     895      568       64 1
     896      626      128 1
     897      158      159 1
     898      259      260 1
     899      830      327 1
     900      883      376 1
     901      422      423 1
     902      627      129 1
     903      734      235 1
     904      540       42 1
     905        2        3 1
     906      367      296 1
     907      773      272 1
     908       17       18 1
     909      137      138 1
     910      161      162 1
     911      426      175 1
     912      209      210 1
     913      233      234 1
     914      257      258 1
     915      281      282 1
     916      329      330 1
     917      329      353 1
     918      362      363 1
     919      942      423 1
     920      126      136 1
     921       81       82 1
     922      105      106 1
     923      321      322 1
     924      354      355 1
     925      923      408 1
     926      739      238 1
     927      450      451 1
     928       70       71 1
     929       94       95 1
     930      611      113 1
     931      803      305 1
     932      410      211 1
     933      252      255 1
     934      372      375 1
     935      720      219 1
     936      943      427 1
     937      697      199 1
     938      709      205 1
     939       19       20 1
     940       43       44 1
     941      115      116 1
     942      619      116 1
     943      139      140 1
     944      187      188 1
     945      211      212 1
     946      235      236 1
     947      606      100 1
     948      712      212 1
     949      810      308 1
     950      792      290 1
     951      398      399 1
     952      650      149 1
     953      710      205 1
     954      214      224 1
     955      895      389 1
     956      944      431 1
     957      300      312 1
     958      813      309 1
     959      536       30 1
     960      511       10 1
     961      991      466 1
     962      839      340 1
     963      496      497 1
     964      791      290 1
     965      868      363 1
     966      958      438 1
     967      891      386 1
     968      993      467 1
     969      781      275 1
     970      684      184 1
     971      368      369 1
     972       20       32 1
     973      685      184 1
     974        2        1 1
     975      514       11 1
     976       47       48 1
     977       71       72 1
     978       95       96 1
     979      119      120 1
     980      625      128 1
     981      191      192 1
     982      838      340 1
     983      394      395 1
     984      916      405 1
     985      579       79 1
     986      797      293 1
     987      881      375 1
     988      269      274 1
     989      965      448 1
     990      549       46 1
     991      628      130 1
     992      820      322 1
     993      970      450 1
     994      484      485 1
     995       26       27 1
     996      609      111 1
     997      146      147 1
     998      681      183 1
     999      687      185 1
    1000      218      219 1
    1001      584       81 1
    1002      397      226 1
    1003      735      236 1
    1004      242      243 1
    1005      954      436 1
    1006      504        6 1
    1007      768      270 1
    1008      725      222 1
    1009      933      419 1
    1010      397      398 1
    1011      487      488 1
    1012      682      183 1
    1013      530       28 1
    1014      664      165 1
    1015      158      174 1
    1016      815      310 1
    1017      525       26 1
    1018      161      171 1
    1019      284      294 1
    1020      726      222 1
    1021      566       63 1
    1022      591       93 1
    1023      832      328 1
    1024      331      352 1
    1025     1027      496 1
    1026      758      256 1
    1027      805      306 1
    1028      598       97 1
    1029      458       84 1
    1030      847      344 1
    1031      972      451 1
    1032      596       96 1
    1033      888      378 1
    1034       87       88 1
    1035      159      160 1
    1036      279      280 1
    1037      303      304 1
    1038      777      274 1
    1039      375      376 1
    1040      391      392 1
    1041      414      424 1
    1042      694      188 1
    1043      495      496 1
    1044      742      239 1
    1045      539       41 1
    1046      172      173 1
    1047      724      221 1
    1048      743      239 1
    1049      564       63 1
    1050      292      293 1
    1051      388      389 1
    1052      708      204 1
    1053      436      437 1
    1054      937      421 1
    1055      962      446 1
    1056      716      218 1
    1057      836      338 1
    1058      929      418 1
    1059      879      374 1
    1060      505        7 1
    1061      690      187 1
    1062      169      170 1
    1063      385      386 1
    1064      433      434 1
    1065      481      482 1
    1066      395      246 1
    1067      635      133 1
    1068      347      349 1
    1069      899      390 1
    1070      983      463 1
    1071      769      270 1
    1072      736      236 1
    1073       39       49 1
    1074      399      409 1
    1075      723      221 1
    1076      586       82 1
    1077      605      100 1
    1078      643      146 1
    1079      109      119 1
    1080      799      293 1
    1081      915      404 1
@<TRIPOS>SUBSTRUCTURE
       1 RES             1 RESIDUE    0 **** ROOT      0
