@<TRIPOS>MOLECULE
RES
  311   325     1     0     0
SMALL
dc


@<TRIPOS>ATOM
      1 C            0.5710     0.5400    -0.0260 cc         1 RES       0.000000
      2 C1           0.7820    -0.9520     0.2350 cd         1 RES       0.000000
      3 C2           2.2600    -1.2180     0.0420 cd         1 RES       0.000000
      4 C3           2.9980    -0.1490     0.8730 cc         1 RES       0.000000
      5 S            2.0210     1.3970     0.6940 ss         1 RES       0.000000
      6 C4           0.0270    -2.0080    -0.5890 cd         1 RES       0.000000
      7 C5           0.8630    -3.3110    -0.4630 cc         1 RES       0.000000
      8 S1           2.4780    -2.9810     0.3780 ss         1 RES       0.000000
      9 F           -0.0380    -1.6330    -1.8800 f          1 RES       0.000000
     10 C6           0.0280    -4.4520     0.1700 c          1 RES       0.000000
     11 O            0.8660    -5.5210     0.6100 o          1 RES       0.000000
     12 O1          -0.9070    -4.9900    -0.7950 os         1 RES       0.000000
     13 C7          -2.2870    -4.9580    -0.3600 c3         1 RES       0.000000
     14 C8          -3.1590    -5.8860    -1.2500 c3         1 RES       0.000000
     15 H           -2.6280    -3.9230    -0.4380 h1         1 RES       0.000000
     16 H1          -2.3520    -5.2760     0.6850 h1         1 RES       0.000000
     17 C9          -3.1820    -7.3440    -0.7040 c3         1 RES       0.000000
     18 C10         -1.8040    -8.0410    -0.7040 c3         1 RES       0.000000
     19 H2          -3.8480    -7.9500    -1.3190 hc         1 RES       0.000000
     20 H3          -3.5910    -7.3490     0.3100 hc         1 RES       0.000000
     21 C11         -1.9390    -9.5160    -0.2650 c3         1 RES       0.000000
     22 H4          -1.1220    -7.5270    -0.0240 hc         1 RES       0.000000
     23 H5          -1.3720    -7.9970    -1.7080 hc         1 RES       0.000000
     24 C12         -0.5810   -10.2400    -0.2840 c3         1 RES       0.000000
     25 H6          -2.6300   -10.0390    -0.9300 hc         1 RES       0.000000
     26 H7          -2.3560    -9.5620     0.7440 hc         1 RES       0.000000
     27 H8          -0.1600   -10.2440    -1.2920 hc         1 RES       0.000000
     28 H9          -0.7010   -11.2760     0.0410 hc         1 RES       0.000000
     29 H10          0.1280    -9.7490     0.3880 hc         1 RES       0.000000
     30 C13         -4.5960    -5.2980    -1.3250 c3         1 RES       0.000000
     31 H11         -2.7460    -5.8930    -2.2630 hc         1 RES       0.000000
     32 C14         -5.5440    -6.0680    -2.2700 c3         1 RES       0.000000
     33 H12         -4.5360    -4.2680    -1.6840 hc         1 RES       0.000000
     34 H13         -5.0370    -5.2630    -0.3260 hc         1 RES       0.000000
     35 H14         -5.0840    -6.2150    -3.2500 hc         1 RES       0.000000
     36 H15         -6.4700    -5.5050    -2.4090 hc         1 RES       0.000000
     37 H16         -5.8110    -7.0430    -1.8580 hc         1 RES       0.000000
     38 C15          4.4960    -0.0050     0.4950 cc         1 RES       0.000000
     39 C16          5.1380     1.3330     0.9560 cd         1 RES       0.000000
     40 C17          6.6180     1.0510     1.2830 ca         1 RES       0.000000
     41 C18          6.5870    -0.2960     2.0050 ca         1 RES       0.000000
     42 C19          7.3350     2.1060     2.1550 ca         1 RES       0.000000
     43 C20          8.7390     1.5990     2.5760 ca         1 RES       0.000000
     44 C21          8.7560     0.1980     3.2180 ca         1 RES       0.000000
     45 C22          7.9980    -0.8170     2.3300 ca         1 RES       0.000000
     46 C23         10.2470    -0.1890     3.3510 cd         1 RES       0.000000
     47 C24         11.0860     0.8780     2.6100 cc         1 RES       0.000000
     48 H17          5.0490     2.0980     0.1820 ha         1 RES       0.000000
     49 H18         10.5380    -0.2370     4.4020 ha         1 RES       0.000000
     50 S2           5.5190    -1.4150     1.0590 ss         1 RES       0.000000
     51 S3          10.0700     1.6920     1.3420 ss         1 RES       0.000000
     52 O2           7.4610     3.3850     1.4710 os         1 RES       0.000000
     53 O3           7.8730    -2.0680     3.0390 os         1 RES       0.000000
     54 C25          6.7230     4.4860     2.0730 c3         1 RES       0.000000
     55 C26          7.5940     5.4960     2.8900 c3         1 RES       0.000000
     56 H19          5.9500     4.0690     2.7250 h1         1 RES       0.000000
     57 H20          6.2130     5.0190     1.2660 h1         1 RES       0.000000
     58 C27          8.8840     4.8810     3.5170 c3         1 RES       0.000000
     59 C28         10.1080     4.8560     2.5710 c3         1 RES       0.000000
     60 H21          8.6690     3.8780     3.8820 hc         1 RES       0.000000
     61 H22          9.1590     5.4500     4.4070 hc         1 RES       0.000000
     62 H23          9.8420     4.4820     1.5820 hc         1 RES       0.000000
     63 H24         10.8940     4.2180     2.9840 hc         1 RES       0.000000
     64 H25         10.5310     5.8540     2.4440 hc         1 RES       0.000000
     65 C29          7.8720     6.8030     2.0890 c3         1 RES       0.000000
     66 H26          6.9640     5.7900     3.7330 hc         1 RES       0.000000
     67 C30          8.5060     7.9200     2.9620 c3         1 RES       0.000000
     68 H27          6.9330     7.1840     1.6810 hc         1 RES       0.000000
     69 H28          8.5130     6.5820     1.2320 hc         1 RES       0.000000
     70 C31          9.0780     9.0710     2.1080 c3         1 RES       0.000000
     71 H29          9.3200     7.5200     3.5660 hc         1 RES       0.000000
     72 H30          7.7570     8.3100     3.6560 hc         1 RES       0.000000
     73 C32          9.8640    10.0670     2.9820 c3         1 RES       0.000000
     74 H31          8.2690     9.5910     1.5900 hc         1 RES       0.000000
     75 H32          9.7520     8.6650     1.3500 hc         1 RES       0.000000
     76 H33          9.2160    10.5180     3.7380 hc         1 RES       0.000000
     77 H34         10.2830    10.8670     2.3660 hc         1 RES       0.000000
     78 H35         10.6910     9.5650     3.4920 hc         1 RES       0.000000
     79 C33          8.6410    -3.1260     2.4300 c3         1 RES       0.000000
     80 C34          8.4410    -4.4540     3.2230 c3         1 RES       0.000000
     81 H36          9.6910    -2.8260     2.4420 h1         1 RES       0.000000
     82 H37          8.3240    -3.2290     1.3870 h1         1 RES       0.000000
     83 C35          9.8330    -5.1220     3.4550 c3         1 RES       0.000000
     84 C36          9.8300    -6.2760     4.4780 c3         1 RES       0.000000
     85 H38         10.5120    -4.3590     3.8470 hc         1 RES       0.000000
     86 H39         10.2670    -5.4660     2.5170 hc         1 RES       0.000000
     87 H40          9.2910    -5.9940     5.3850 hc         1 RES       0.000000
     88 H41         10.8570    -6.5240     4.7560 hc         1 RES       0.000000
     89 H42          9.3750    -7.1770     4.0680 hc         1 RES       0.000000
     90 C37          7.3210    -5.3450     2.5580 c3         1 RES       0.000000
     91 H43          8.0850    -4.1520     4.2160 hc         1 RES       0.000000
     92 C38          7.2780    -6.8000     1.9710 c3         1 RES       0.000000
     93 H44          7.3190    -5.8610     3.5190 hc         1 RES       0.000000
     94 H45          8.0390    -5.2810     1.7420 hc         1 RES       0.000000
     95 C39          6.0070    -7.5770     2.3870 c3         1 RES       0.000000
     96 H46          7.2660    -6.7830     0.8730 hc         1 RES       0.000000
     97 H47          8.1580    -7.3770     2.2630 hc         1 RES       0.000000
     98 C40          5.9600    -8.9600     1.7090 c3         1 RES       0.000000
     99 H48          5.1190    -7.0070     2.0990 hc         1 RES       0.000000
    100 H49          5.9780    -7.7090     3.4710 hc         1 RES       0.000000
    101 H50          5.9630    -8.8590     0.6210 hc         1 RES       0.000000
    102 H51          5.0530    -9.4950     1.9990 hc         1 RES       0.000000
    103 H52          6.8230    -9.5630     2.0030 hc         1 RES       0.000000
    104 C41         12.5080     0.4740     2.1460 cc         1 RES       0.000000
    105 C42         12.9210    -0.9780     2.4610 cd         1 RES       0.000000
    106 C43         14.4620    -1.0760     2.4910 cd         1 RES       0.000000
    107 C44         15.0950     0.3350     2.5270 cc         1 RES       0.000000
    108 S4          13.8030     1.6030     2.7390 ss         1 RES       0.000000
    109 C45         12.3220    -2.0370     1.5010 cd         1 RES       0.000000
    110 C46         13.4150    -2.7560     0.6920 cc         1 RES       0.000000
    111 S5          15.0590    -2.0710     1.0920 ss         1 RES       0.000000
    112 F1          11.3910    -1.5250     0.6730 f          1 RES       0.000000
    113 C47         13.2600    -4.2910     0.8550 c          1 RES       0.000000
    114 O4          14.5180    -4.9560     0.9720 o          1 RES       0.000000
    115 O5          12.5370    -4.8740    -0.2590 os         1 RES       0.000000
    116 C48         11.1480    -4.4890    -0.3780 c3         1 RES       0.000000
    117 C49         10.3210    -5.5630    -1.1320 c3         1 RES       0.000000
    118 H53         11.1140    -3.5450    -0.9280 h1         1 RES       0.000000
    119 H54         10.7200    -4.3340     0.6150 h1         1 RES       0.000000
    120 C50         10.1010    -6.8440    -0.2750 c3         1 RES       0.000000
    121 C51         11.3610    -7.6960    -0.0090 c3         1 RES       0.000000
    122 H55          9.3780    -7.4940    -0.7690 hc         1 RES       0.000000
    123 H56          9.6690    -6.5580     0.6790 hc         1 RES       0.000000
    124 C52         10.9830    -8.9900     0.7450 c3         1 RES       0.000000
    125 H57         12.0770    -7.1410     0.5980 hc         1 RES       0.000000
    126 H58         11.8430    -7.9470    -0.9570 hc         1 RES       0.000000
    127 C53         12.2220    -9.8540     1.0400 c3         1 RES       0.000000
    128 H59         10.2730    -9.5710     0.1520 hc         1 RES       0.000000
    129 H60         10.4920    -8.7350     1.6880 hc         1 RES       0.000000
    130 H61         12.7180   -10.1450     0.1120 hc         1 RES       0.000000
    131 H62         11.9290   -10.7620     1.5720 hc         1 RES       0.000000
    132 H63         12.9350    -9.3070     1.6610 hc         1 RES       0.000000
    133 C54          8.9610    -4.9060    -1.5070 c3         1 RES       0.000000
    134 H64         10.8420    -5.8330    -2.0550 hc         1 RES       0.000000
    135 C55          8.0220    -5.8010    -2.3440 c3         1 RES       0.000000
    136 H65          9.1560    -4.0000    -2.0850 hc         1 RES       0.000000
    137 H66          8.4350    -4.5950    -0.6020 hc         1 RES       0.000000
    138 H67          8.5500    -6.2260    -3.2010 hc         1 RES       0.000000
    139 H68          7.1830    -5.2100    -2.7180 hc         1 RES       0.000000
    140 H69          7.6060    -6.6130    -1.7460 hc         1 RES       0.000000
    141 C56         16.2860     0.4840     3.5130 cc         1 RES       0.000000
    142 C57         17.1030     1.7850     3.2910 cd         1 RES       0.000000
    143 C58         18.5170     1.5390     3.8570 ca         1 RES       0.000000
    144 C59         18.8770     0.0790     3.5130 ca         1 RES       0.000000
    145 C60         19.6120     2.5600     3.4190 ca         1 RES       0.000000
    146 C61         20.9920     1.8440     3.4150 ca         1 RES       0.000000
    147 C62         21.0800     0.8020     4.5330 ca         1 RES       0.000000
    148 C63         20.2450    -0.4190     4.0830 ca         1 RES       0.000000
    149 C64         22.5580     0.5190     4.8420 cd         1 RES       0.000000
    150 C65         23.4270     1.7360     4.4270 cc         1 RES       0.000000
    151 H70         17.1710     2.0040     2.2230 ha         1 RES       0.000000
    152 H71         22.6960     0.2750     5.8980 ha         1 RES       0.000000
    153 S6          17.3980    -0.9710     3.6390 ss         1 RES       0.000000
    154 S7          22.5230     2.8120     3.2660 ss         1 RES       0.000000
    155 O6          19.6360     3.6450     4.3820 os         1 RES       0.000000
    156 O7          20.1130    -1.3580     5.1760 os         1 RES       0.000000
    157 C66         19.8860     4.9620     3.8210 c3         1 RES       0.000000
    158 C67         20.2680     5.9700     4.9400 c3         1 RES       0.000000
    159 H72         18.9770     5.2940     3.3130 h1         1 RES       0.000000
    160 H73         20.6940     4.9030     3.0890 h1         1 RES       0.000000
    161 C68         21.5490     5.5090     5.7050 c3         1 RES       0.000000
    162 C69         22.8820     5.8020     4.9750 c3         1 RES       0.000000
    163 H74         21.4890     4.4380     5.9100 hc         1 RES       0.000000
    164 H75         21.5790     5.9920     6.6840 hc         1 RES       0.000000
    165 H76         22.8380     5.5050     3.9270 hc         1 RES       0.000000
    166 H77         23.6990     5.2570     5.4530 hc         1 RES       0.000000
    167 H78         23.1280     6.8640     5.0100 hc         1 RES       0.000000
    168 C70         20.3990     7.3920     4.3180 c3         1 RES       0.000000
    169 H79         19.4430     5.9890     5.6580 hc         1 RES       0.000000
    170 C71         20.7680     8.5100     5.3290 c3         1 RES       0.000000
    171 H80         19.4560     7.6610     3.8350 hc         1 RES       0.000000
    172 H81         21.1480     7.3570     3.5240 hc         1 RES       0.000000
    173 C72         21.3380     9.7500     4.6050 c3         1 RES       0.000000
    174 H82         21.5160     8.1590     6.0390 hc         1 RES       0.000000
    175 H83         19.8850     8.7880     5.9120 hc         1 RES       0.000000
    176 C73         21.9900    10.7340     5.5930 c3         1 RES       0.000000
    177 H84         20.5450    10.2530     4.0470 hc         1 RES       0.000000
    178 H85         22.0990     9.4390     3.8840 hc         1 RES       0.000000
    179 H86         21.2610    11.0980     6.3200 hc         1 RES       0.000000
    180 H87         22.4020    11.5920     5.0560 hc         1 RES       0.000000
    181 H88         22.8090    10.2490     6.1330 hc         1 RES       0.000000
    182 C74         20.1100    -2.7580     4.7870 c3         1 RES       0.000000
    183 C75         20.0990    -3.6230     6.0730 c3         1 RES       0.000000
    184 H89         20.9920    -2.9790     4.1810 h1         1 RES       0.000000
    185 H90         19.2120    -2.9520     4.1960 h1         1 RES       0.000000
    186 C76         21.5340    -3.8470     6.6420 c3         1 RES       0.000000
    187 C77         22.3060    -5.0660     6.1020 c3         1 RES       0.000000
    188 H91         21.4690    -3.9480     7.7280 hc         1 RES       0.000000
    189 H92         22.1310    -2.9500     6.4550 hc         1 RES       0.000000
    190 H93         21.8700    -5.9950     6.4780 hc         1 RES       0.000000
    191 H94         23.3440    -5.0340     6.4380 hc         1 RES       0.000000
    192 H95         22.3020    -5.0860     5.0130 hc         1 RES       0.000000
    193 C78         19.1960    -4.8880     5.9580 c3         1 RES       0.000000
    194 H96         19.6000    -3.0110     6.8300 hc         1 RES       0.000000
    195 C79         19.4340    -5.8110     4.7330 c3         1 RES       0.000000
    196 H97         19.2820    -5.4760     6.8750 hc         1 RES       0.000000
    197 H98         18.1610    -4.5400     5.9120 hc         1 RES       0.000000
    198 C80         18.3070    -6.8560     4.5960 c3         1 RES       0.000000
    199 H99         19.4850    -5.2280     3.8130 hc         1 RES       0.000000
    200 H100        20.3740    -6.3480     4.8420 hc         1 RES       0.000000
    201 C81         18.6180    -7.8760     3.4840 c3         1 RES       0.000000
    202 H101        17.3640    -6.3520     4.3700 hc         1 RES       0.000000
    203 H102        18.1790    -7.3890     5.5410 hc         1 RES       0.000000
    204 H103        18.7430    -7.3760     2.5210 hc         1 RES       0.000000
    205 H104        17.8010    -8.5960     3.3930 hc         1 RES       0.000000
    206 H105        19.5350    -8.4270     3.7100 hc         1 RES       0.000000
    207 C82         24.8700     1.3900     3.9610 cc         1 RES       0.000000
    208 C83         25.1580    -0.1100     4.0540 cd         1 RES       0.000000
    209 C84         26.6210    -0.3580     4.3130 cd         1 RES       0.000000
    210 C85         27.1140     0.6940     5.3180 cc         1 RES       0.000000
    211 S8          26.1720     2.2310     4.9480 ss         1 RES       0.000000
    212 C86         24.8330    -1.0630     2.9070 cd         1 RES       0.000000
    213 C87         25.3170    -2.4130     3.5000 cc         1 RES       0.000000
    214 S9          26.7310    -2.1340     4.6640 ss         1 RES       0.000000
    215 F2          23.5140    -1.0620     2.6540 f          1 RES       0.000000
    216 C88         25.5690    -3.5370     2.4670 c          1 RES       0.000000
    217 O8          26.7160    -3.2360     1.6730 o          1 RES       0.000000
    218 O9          24.4370    -3.7880     1.5930 os         1 RES       0.000000
    219 C89         23.1830    -4.1270     2.2360 c3         1 RES       0.000000
    220 C90         22.3640    -5.0750     1.3200 c3         1 RES       0.000000
    221 H106        22.6220    -3.2100     2.4200 h1         1 RES       0.000000
    222 H107        23.3850    -4.5920     3.2010 h1         1 RES       0.000000
    223 C91         22.1680    -6.4580     1.9980 c3         1 RES       0.000000
    224 C92         23.4950    -7.1910     2.3070 c3         1 RES       0.000000
    225 H108        21.5770    -7.1080     1.3500 hc         1 RES       0.000000
    226 H109        21.6040    -6.3250     2.9200 hc         1 RES       0.000000
    227 C93         23.2230    -8.5030     3.0720 c3         1 RES       0.000000
    228 H110        24.1530    -6.5670     2.9150 hc         1 RES       0.000000
    229 H111        24.0200    -7.4060     1.3730 hc         1 RES       0.000000
    230 C94         24.5350    -9.2250     3.4280 c3         1 RES       0.000000
    231 H112        22.5980    -9.1620     2.4650 hc         1 RES       0.000000
    232 H113        22.6760    -8.2840     3.9920 hc         1 RES       0.000000
    233 H114        25.0900    -9.4840     2.5240 hc         1 RES       0.000000
    234 H115        24.3220   -10.1460     3.9760 hc         1 RES       0.000000
    235 H116        25.1660    -8.5910     4.0550 hc         1 RES       0.000000
    236 C95         21.0060    -4.3960     0.9820 c3         1 RES       0.000000
    237 H117        22.9060    -5.2260     0.3820 hc         1 RES       0.000000
    238 C96         20.1000    -5.2240     0.0470 c3         1 RES       0.000000
    239 H118        21.2080    -3.4380     0.4950 hc         1 RES       0.000000
    240 H119        20.4590    -4.1750     1.9010 hc         1 RES       0.000000
    241 H120        20.6460    -5.5400    -0.8450 hc         1 RES       0.000000
    242 H121        19.2440    -4.6250    -0.2690 hc         1 RES       0.000000
    243 H122        19.7120    -6.1090     0.5540 hc         1 RES       0.000000
    244 C97         28.6590     0.8210     5.2380 cc         1 RES       0.000000
    245 C98         29.2860     2.2050     5.5580 cd         1 RES       0.000000
    246 C99         30.6870     1.9590     6.1720 ca         1 RES       0.000000
    247 C100        31.0510     0.4860     5.9360 ca         1 RES       0.000000
    248 C101        31.8340     2.9480     5.7960 ca         1 RES       0.000000
    249 C102        33.1930     2.4290     6.3560 ca         1 RES       0.000000
    250 C103        33.4310     0.9200     6.2910 ca         1 RES       0.000000
    251 C104        32.2390     0.1170     6.8330 ca         1 RES       0.000000
    252 C105        34.7900     0.6980     6.9700 cd         1 RES       0.000000
    253 C106        35.7030     1.8480     6.4960 cc         1 RES       0.000000
    254 H123        29.3600     2.8020     4.6470 ha         1 RES       0.000000
    255 H124        35.2210    -0.2680     6.7000 ha         1 RES       0.000000
    256 S10         29.5540    -0.5160     6.0980 ss         1 RES       0.000000
    257 S11         34.7140     3.1710     5.7080 ss         1 RES       0.000000
    258 O10         31.5620     4.2000     6.4870 os         1 RES       0.000000
    259 O11         32.4990    -1.3130     6.9020 os         1 RES       0.000000
    260 C107        32.0790     5.4240     5.8920 c3         1 RES       0.000000
    261 C108        32.4360     6.4480     7.0090 c3         1 RES       0.000000
    262 H125        31.3010     5.8330     5.2420 h1         1 RES       0.000000
    263 H126        32.9620     5.2130     5.2860 h1         1 RES       0.000000
    264 C109        33.6420     5.9470     7.8650 c3         1 RES       0.000000
    265 C110        35.0350     6.1930     7.2340 c3         1 RES       0.000000
    266 H127        33.5270     4.8810     8.0650 hc         1 RES       0.000000
    267 H128        33.6170     6.4320     8.8440 hc         1 RES       0.000000
    268 H129        35.0570     5.9010     6.1840 hc         1 RES       0.000000
    269 H130        35.7950     5.6180     7.7680 hc         1 RES       0.000000
    270 H131        35.3190     7.2450     7.2910 hc         1 RES       0.000000
    271 C111        32.6720     7.8560     6.3850 c3         1 RES       0.000000
    272 H132        31.5690     6.5190     7.6710 hc         1 RES       0.000000
    273 C112        32.9990     8.9630     7.4240 c3         1 RES       0.000000
    274 H133        31.7810     8.1580     5.8300 hc         1 RES       0.000000
    275 H134        33.4810     7.7890     5.6540 hc         1 RES       0.000000
    276 C113        33.6200    10.2060     6.7470 c3         1 RES       0.000000
    277 H135        33.7060     8.5980     8.1680 hc         1 RES       0.000000
    278 H136        32.0910     9.2450     7.9630 hc         1 RES       0.000000
    279 C114        34.2400    11.1630     7.7840 c3         1 RES       0.000000
    280 H137        32.8590    10.7320     6.1660 hc         1 RES       0.000000
    281 H138        34.4070     9.8970     6.0550 hc         1 RES       0.000000
    282 H139        33.4860    11.5160     8.4910 hc         1 RES       0.000000
    283 H140        34.6780    12.0300     7.2840 hc         1 RES       0.000000
    284 H141        35.0340    10.6620     8.3440 hc         1 RES       0.000000
    285 C115        33.0650    -2.0150     5.7630 c3         1 RES       0.000000
    286 C116        33.8220    -3.2400     6.3370 c3         1 RES       0.000000
    287 H142        33.7680    -1.3670     5.2350 h1         1 RES       0.000000
    288 H143        32.2700    -2.3110     5.0730 h1         1 RES       0.000000
    289 C117        35.1160    -3.5370     5.5330 c3         1 RES       0.000000
    290 C118        36.0040    -4.6020     6.2150 c3         1 RES       0.000000
    291 H144        35.7010    -2.6170     5.4520 hc         1 RES       0.000000
    292 H145        34.8780    -3.8450     4.5120 hc         1 RES       0.000000
    293 H146        36.2620    -4.2920     7.2300 hc         1 RES       0.000000
    294 H147        36.9340    -4.7280     5.6540 hc         1 RES       0.000000
    295 H148        35.5050    -5.5680     6.2610 hc         1 RES       0.000000
    296 C119        32.8730    -4.4610     6.5090 c3         1 RES       0.000000
    297 H149        34.1530    -2.9600     7.3420 hc         1 RES       0.000000
    298 C120        32.6100    -5.2640     5.2120 c3         1 RES       0.000000
    299 H150        31.9220    -4.1140     6.9210 hc         1 RES       0.000000
    300 H151        33.3010    -5.1350     7.2550 hc         1 RES       0.000000
    301 C121        31.5770    -6.3850     5.4510 c3         1 RES       0.000000
    302 H152        32.2540    -4.6020     4.4180 hc         1 RES       0.000000
    303 H153        33.5420    -5.7180     4.8690 hc         1 RES       0.000000
    304 C122        31.5600    -7.3900     4.2840 c3         1 RES       0.000000
    305 H154        30.5830    -5.9470     5.5730 hc         1 RES       0.000000
    306 H155        31.8160    -6.9220     6.3720 hc         1 RES       0.000000
    307 H156        31.3460    -6.8860     3.3380 hc         1 RES       0.000000
    308 H157        30.7950    -8.1510     4.4510 hc         1 RES       0.000000
    309 H158        32.5270    -7.8930     4.1990 hc         1 RES       0.000000
    310 H159        -0.3480     0.8910     0.4510 h4         1 RES       0.000000
    311 H160        36.2560     2.2600     7.3450 h4         1 RES       0.000000
@<TRIPOS>BOND
     1    46    44 1
     2   147   146 ar
     3     4     5 1
     4    93    90 1
     5    47    46 2
     6    17    18 1
     7    85    83 1
     8    25    21 1
     9    84    83 1
    10   105   109 1
    11   258   248 1
    12   261   260 1
    13   304   309 1
    14    79    80 1
    15    75    70 1
    16   276   273 1
    17    29    24 1
    18   259   251 1
    19   216   218 1
    20   176   179 1
    21   148   156 1
    22     8     3 1
    23   118   116 1
    24   116   115 1
    25   251   250 ar
    26    69    65 1
    27   289   290 1
    28    68    65 1
    29    64    59 1
    30   269   265 1
    31   248   246 ar
    32    28    24 1
    33    18    22 1
    34    26    21 1
    35   133   135 1
    36   125   121 1
    37    32    36 1
    38    30    34 1
    39   155   157 1
    40   193   197 1
    41   195   198 1
    42   133   136 1
    43   110   111 1
    44   240   236 1
    45   221   219 1
    46    87    84 1
    47   207   211 1
    48   271   273 1
    49   275   271 1
    50   264   266 1
    51   182   184 1
    52   250   249 ar
    53    38     4 1
    54    92    97 1
    55   133   117 1
    56   227   224 1
    57   158   161 1
    58   234   230 1
    59    65    55 1
    60   285   259 1
    61   104    47 1
    62    81    79 1
    63    15    13 1
    64   145   146 ar
    65   113   115 1
    66   195   199 1
    67    58    55 1
    68   285   287 1
    69   107   106 2
    70   170   175 1
    71   241   238 1
    72   222   219 1
    73   207   208 2
    74   186   188 1
    75   264   261 1
    76    82    79 1
    77   120   123 1
    78   301   304 1
    79   201   206 1
    80   286   296 1
    81   247   246 ar
    82   286   289 1
    83   310     1 1
    84   181   176 1
    85   149   150 2
    86   256   244 1
    87   208   209 1
    88   133   137 1
    89    17    20 1
    90   228   224 1
    91   229   224 1
    92   219   218 1
    93   304   308 1
    94   290   295 1
    95    12    10 1
    96   271   274 1
    97    44    45 ar
    98    53    45 1
    99   182   185 1
   100   143   145 ar
   101   304   307 1
   102   144   143 ar
   103   311   253 1
   104    86    83 1
   105    57    54 1
   106    66    55 1
   107   100    95 1
   108   103    98 1
   109   183   194 1
   110    63    59 1
   111    74    70 1
   112   182   156 1
   113   256   247 1
   114   186   189 1
   115   220   219 1
   116   289   291 1
   117   127   124 1
   118   226   223 1
   119   276   281 1
   120   158   169 1
   121   289   292 1
   122    79    53 1
   123   119   116 1
   124   141   153 1
   125    17    14 1
   126    78    73 1
   127   187   192 1
   128   150   154 1
   129     4     3 2
   130   170   174 1
   131   142   143 1
   132   285   288 1
   133   214   209 1
   134   231   227 1
   135    16    13 1
   136   301   305 1
   137    17    19 1
   138   268   265 1
   139   141   107 1
   140   147   148 ar
   141   255   252 1
   142   216   213 1
   143   158   168 1
   144     7     6 2
   145   201   204 1
   146   149   152 1
   147   298   301 1
   148    31    14 1
   149   290   294 1
   150    73    70 1
   151   161   162 1
   152    10     7 1
   153   128   124 1
   154   107   108 1
   155   147   149 1
   156   142   141 2
   157   132   127 1
   158   168   171 1
   159   162   167 1
   160   198   203 1
   161   135   139 1
   162   170   173 1
   163   183   193 1
   164    42    43 ar
   165   183   186 1
   166    70    67 1
   167   210   209 2
   168   249   248 ar
   169   272   261 1
   170   129   124 1
   171   173   178 1
   172   223   220 1
   173   276   280 1
   174   296   300 1
   175   298   303 1
   176   145   155 1
   177   242   238 1
   178   104   108 1
   179    40    39 1
   180   267   264 1
   181   142   151 1
   182   213   212 2
   183   110   109 2
   184    50    41 1
   185    45    41 ar
   186   271   261 1
   187   257   253 1
   188    40    42 ar
   189    51    43 1
   190    90    80 1
   191   201   205 1
   192   257   249 1
   193   251   247 ar
   194   173   176 1
   195   113   114 2
   196   208   212 1
   197   290   293 1
   198    55    54 1
   199   161   163 1
   200   195   200 1
   201   254   245 1
   202   216   217 2
   203   157   158 1
   204   270   265 1
   205    91    80 1
   206    56    54 1
   207   296   299 1
   208   186   187 1
   209   237   220 1
   210   246   245 1
   211    11    10 2
   212    59    58 1
   213   182   183 1
   214    27    24 1
   215   187   190 1
   216    61    58 1
   217   130   127 1
   218    88    84 1
   219   116   117 1
   220   168   172 1
   221   224   223 1
   222   243   238 1
   223    14    13 1
   224   239   236 1
   225   113   110 1
   226    92    90 1
   227    49    46 1
   228   263   260 1
   229   279   282 1
   230   120   122 1
   231   117   120 1
   232     1     5 1
   233   135   138 1
   234    12    13 1
   235   168   170 1
   236    24    21 1
   237   161   164 1
   238    98    95 1
   239   298   302 1
   240   264   265 1
   241   131   127 1
   242   146   154 1
   243    71    67 1
   244   296   298 1
   245     7     8 1
   246   285   286 1
   247   101    98 1
   248   301   306 1
   249   245   244 2
   250    92    95 1
   251   233   230 1
   252    30    14 1
   253   135   140 1
   254   144   153 1
   255    52    42 1
   256   210   211 1
   257     2     3 1
   258   134   117 1
   259   225   223 1
   260   277   273 1
   261    18    23 1
   262   173   177 1
   263   126   121 1
   264   157   159 1
   265    38    50 1
   266   193   195 1
   267   105   104 2
   268    32    30 1
   269   286   297 1
   270   111   106 1
   271    67    65 1
   272   253   252 2
   273   120   121 1
   274   238   236 1
   275    62    59 1
   276    32    37 1
   277    48    39 1
   278    92    96 1
   279    54    52 1
   280   105   106 1
   281   157   160 1
   282   193   196 1
   283    94    90 1
   284   187   191 1
   285   144   148 ar
   286    38    39 2
   287    33    30 1
   288    40    41 ar
   289    60    58 1
   290    72    67 1
   291    83    80 1
   292   162   166 1
   293   198   202 1
   294   236   220 1
   295   260   258 1
   296   150   207 1
   297   162   165 1
   298   198   201 1
   299   176   180 1
   300    89    84 1
   301   102    98 1
   302   230   227 1
   303   279   283 1
   304   214   213 1
   305   232   227 1
   306   252   250 1
   307     9     6 1
   308    77    73 1
   309   210   244 1
   310   215   212 1
   311   278   273 1
   312   235   230 1
   313    44    43 ar
   314    99    95 1
   315     1     2 2
   316    51    47 1
   317    76    73 1
   318   276   279 1
   319   262   260 1
   320    18    21 1
   321   124   121 1
   322   112   109 1
   323   279   284 1
   324     6     2 1
   325    32    35 1
@<TRIPOS>SUBSTRUCTURE
     1 RES         1 TEMP              0 ****  ****    0 ROOT
