@<TRIPOS>MOLECULE
RES
 517 541 0 0 0
SMALL
GASTEIGER

@<TRIPOS>ATOM
      1 C           3.6212   -0.1370    0.0004 C.3     1  UNL1        0.0218
      2 C           2.7319   -1.1906   -0.0047 C.3     1  UNL1       -0.0131
      3 C           1.2887   -0.7859   -0.0074 C.3     1  UNL1        0.0369
      4 C          -0.0034   -1.4723   -0.0473 C.3     1  UNL1        0.1246
      5 O           0.0175   -2.8577   -0.2060 O.3     1  UNL1       -0.3681
      6 C          -1.1989   -3.6076   -0.0508 C.3     1  UNL1        0.0514
      7 C          -0.9207   -5.1143    0.0074 C.3     1  UNL1       -0.0178
      8 C          -0.1010   -5.4761    1.2596 C.3     1  UNL1       -0.0510
      9 C           1.2421   -4.7818    1.3149 C.3     1  UNL1       -0.0650
     10 C          -2.2541   -5.8881   -0.0021 C.3     1  UNL1       -0.0481
     11 C          -2.0196   -7.3948   -0.0146 C.3     1  UNL1       -0.0530
     12 C          -3.3287   -8.1613   -0.0129 C.3     1  UNL1       -0.0559
     13 C          -3.0464   -9.6515   -0.0044 C.3     1  UNL1       -0.0653
     14 C          -1.2159   -0.7056   -0.0088 C.3     1  UNL1        0.0768
     15 S          -2.8958   -1.1640   -0.0039 S.3     1  UNL1       -0.1389
     16 C          -3.4950    0.4139    0.0012 C.3     1  UNL1        0.0546
     17 C          -4.8854    0.7090    0.0013 C.3     1  UNL1        0.0673
     18 C          -5.4530    1.9558    0.0001 C.3     1  UNL1        0.0621
     19 S          -4.8812    3.5531    0.0012 S.3     1  UNL1       -0.1331
     20 C          -6.4781    4.1602   -0.0119 C.3     1  UNL1        0.1394
     21 C          -6.7304    5.5920   -0.1109 C.3     1  UNL1        0.2809
     22 O          -8.0072    5.8816   -0.5837 O.3     1  UNL1       -0.3409
     23 C          -9.4304    5.1456   -0.7936 C.3     1  UNL1        0.0540
     24 C         -11.1517    6.1350   -0.9996 C.3     1  UNL1       -0.0177
     25 C         -11.1803    7.1691   -2.0210 C.3     1  UNL1       -0.0481
     26 C         -10.0605    8.1459   -1.9733 C.3     1  UNL1       -0.0530
     27 C         -10.0474    9.1665   -3.0293 C.3     1  UNL1       -0.0559
     28 C          -8.8312   10.0699   -2.8258 C.3     1  UNL1       -0.0653
     29 C         -12.7464    5.3558   -0.9377 C.3     1  UNL1       -0.0510
     30 C         -13.9101    6.2497   -0.5943 C.3     1  UNL1       -0.0650
     31 O          -5.9263    6.4689    0.0394 O.3     1  UNL1       -0.1889
     32 C          -7.3137    3.0809    0.0100 C.3     1  UNL1        0.1774
     33 F          -8.5749    3.1876    0.0237 F       1  UNL1       -0.2361
     34 C          -6.7847    1.7944    0.0023 C.3     1  UNL1        0.0552
     35 C          -7.4156    0.5003    0.0018 C.3     1  UNL1        0.0608
     36 C          -8.8099   -0.0206   -0.0021 C.3     1  UNL1        0.0539
     37 C          -9.7189   -1.1069   -0.0093 C.3     1  UNL1       -0.0083
     38 C         -11.2831   -0.7074   -0.0184 C.3     1  UNL1        0.0373
     39 C         -12.6189   -1.2704   -0.0631 C.3     1  UNL1        0.1246
     40 O         -12.6796   -2.6262   -0.2468 O.3     1  UNL1       -0.3681
     41 C         -13.9439   -3.2424   -0.0684 C.3     1  UNL1        0.0514
     42 C         -13.7383   -4.7424   -0.0055 C.3     1  UNL1       -0.0178
     43 C         -12.9350   -5.1339    1.2498 C.3     1  UNL1       -0.0510
     44 C         -11.5517   -4.5171    1.3094 C.3     1  UNL1       -0.0650
     45 C         -15.1105   -5.4215   -0.0194 C.3     1  UNL1       -0.0481
     46 C         -14.9605   -6.9332   -0.0331 C.3     1  UNL1       -0.0530
     47 C         -16.3119   -7.6167   -0.0361 C.3     1  UNL1       -0.0559
     48 C         -16.1175   -9.1196   -0.0277 C.3     1  UNL1       -0.0653
     49 C         -13.8087   -0.4132   -0.0296 C.3     1  UNL1        0.0768
     50 S         -15.5231   -0.7112   -0.0292 S.3     1  UNL1       -0.1389
     51 C         -15.9926    0.9201   -0.0197 C.3     1  UNL1        0.0546
     52 C         -17.3518    1.3211   -0.0219 C.3     1  UNL1        0.0673
     53 C         -17.8349    2.6032   -0.0244 C.3     1  UNL1        0.0621
     54 S         -17.1686    4.1587   -0.0177 S.3     1  UNL1       -0.1331
     55 C         -18.7330    4.8416   -0.0437 C.3     1  UNL1        0.1394
     56 C         -18.8262    6.3681   -0.1259 C.3     1  UNL1        0.2809
     57 O         -20.1660    6.6779   -0.5989 O.3     1  UNL1       -0.3409
     58 C         -21.6098    6.0305   -0.8339 C.3     1  UNL1        0.0540
     59 C         -23.2651    7.1169   -1.0482 C.3     1  UNL1       -0.0177
     60 C         -23.2287    8.1556   -2.0663 C.3     1  UNL1       -0.0481
     61 C         -22.0538    9.0664   -2.0142 C.3     1  UNL1       -0.0530
     62 C         -21.9762   10.0851   -3.0699 C.3     1  UNL1       -0.0559
     63 C         -20.7086   10.9141   -2.8619 C.3     1  UNL1       -0.0653
     64 C         -24.9037    6.4386   -0.9858 C.3     1  UNL1       -0.0510
     65 C         -26.0117    7.4017   -0.6437 C.3     1  UNL1       -0.0650
     66 O         -18.0514    7.1303    0.0032 O.3     1  UNL1       -0.1889
     67 C         -19.6091    3.8392   -0.0221 C.3     1  UNL1        0.1774
     68 F         -20.8838    4.0263   -0.0061 F       1  UNL1       -0.2361
     69 C         -19.1753    2.5234   -0.0277 C.3     1  UNL1        0.0552
     70 C         -19.8825    1.2737   -0.0291 C.3     1  UNL1        0.0608
     71 C         -21.3016    0.8384   -0.0368 C.3     1  UNL1        0.0539
     72 C         -22.2715   -0.1923   -0.0465 C.3     1  UNL1       -0.0083
     73 C         -23.8078    0.2993   -0.0603 C.3     1  UNL1        0.0373
     74 C         -25.1742   -0.1829   -0.1090 C.3     1  UNL1        0.1246
     75 O         -25.3144   -1.5326   -0.2924 O.3     1  UNL1       -0.3681
     76 C         -26.6137   -2.0722   -0.1174 C.3     1  UNL1        0.0514
     77 C         -26.4976   -3.5816   -0.0532 C.3     1  UNL1       -0.0178
     78 C         -25.7230   -4.0192    1.2050 C.3     1  UNL1       -0.0510
     79 C         -24.3057   -3.4858    1.2685 C.3     1  UNL1       -0.0650
     80 C         -27.9078   -4.1778   -0.0710 C.3     1  UNL1       -0.0481
     81 C         -27.8479   -5.6958   -0.0834 C.3     1  UNL1       -0.0530
     82 C         -29.2375   -6.2976   -0.0903 C.3     1  UNL1       -0.0559
     83 C         -29.1329   -7.8094   -0.0805 C.3     1  UNL1       -0.0653
     84 C         -26.3111    0.7437   -0.0795 C.3     1  UNL1        0.0768
     85 S         -28.0403    0.5488   -0.0842 S.3     1  UNL1       -0.1389
     86 C         -28.4119    2.2057   -0.0775 C.3     1  UNL1        0.0546
     87 C         -29.7450    2.6892   -0.0841 C.3     1  UNL1        0.0673
     88 C         -30.1512    3.9977   -0.0846 C.3     1  UNL1        0.0621
     89 S         -29.3960    5.5124   -0.0708 S.3     1  UNL1       -0.1331
     90 C         -30.9040    6.3169   -0.1002 C.3     1  UNL1        0.1394
     91 C         -30.9954    7.7579   -0.2095 C.3     1  UNL1        0.2809
     92 O         -32.2060    8.2085   -0.7114 O.3     1  UNL1       -0.3409
     93 C         -33.7070    7.6467   -0.9145 C.3     1  UNL1        0.0540
     94 C         -35.2985    8.8296   -1.1244 C.3     1  UNL1       -0.0177
     95 C         -35.1973    9.8601   -2.1440 C.3     1  UNL1       -0.0481
     96 C         -33.9687   10.6949   -2.0847 C.3     1  UNL1       -0.0530
     97 C         -33.8274   11.7070   -3.1396 C.3     1  UNL1       -0.0559
     98 C         -32.5146   12.4602   -2.9278 C.3     1  UNL1       -0.0653
     99 C         -36.9720    8.2439   -1.0730 C.3     1  UNL1       -0.0510
    100 C         -38.0249    9.2695   -0.7367 C.3     1  UNL1       -0.0650
    101 O         -30.0731    8.5455   -0.0425 O.3     1  UNL1       -0.1889
    102 C         -31.8654    5.3416   -0.0864 C.3     1  UNL1        0.1774
    103 F         -33.1015    5.5983   -0.0857 F       1  UNL1       -0.2361
    104 C         -31.4919    4.0010   -0.0920 C.3     1  UNL1        0.0552
    105 C         -32.2734    2.7930   -0.0994 C.3     1  UNL1        0.0608
    106 C         -33.7158    2.4413   -0.1134 C.3     1  UNL1        0.0539
    107 C         -34.7450    1.4694   -0.1277 C.3     1  UNL1       -0.0083
    108 C         -36.2490    2.0516   -0.1469 C.3     1  UNL1        0.0373
    109 C         -37.6413    1.6512   -0.2011 C.3     1  UNL1        0.1246
    110 O         -37.8610    0.3122   -0.3866 O.3     1  UNL1       -0.3681
    111 C         -39.1907   -0.1497   -0.2172 C.3     1  UNL1        0.0514
    112 C         -39.1649   -1.6635   -0.1548 C.3     1  UNL1       -0.0178
    113 C         -38.4222   -2.1482    1.1054 C.3     1  UNL1       -0.0510
    114 C         -36.9759   -1.7001    1.1747 C.3     1  UNL1       -0.0650
    115 C         -40.6080   -2.1749   -0.1783 C.3     1  UNL1       -0.0481
    116 C         -40.6385   -3.6938   -0.1928 C.3     1  UNL1       -0.0530
    117 C         -42.0615   -4.2119   -0.2054 C.3     1  UNL1       -0.0559
    118 C         -42.0470   -5.7272   -0.1975 C.3     1  UNL1       -0.0653
    119 C         -38.7208    2.6439   -0.1745 C.3     1  UNL1        0.0768
    120 S         -40.4581    2.5516   -0.1857 S.3     1  UNL1       -0.1389
    121 C         -40.7302    4.2275   -0.1775 C.3     1  UNL1        0.0546
    122 C         -42.0315    4.7899   -0.1877 C.3     1  UNL1        0.0673
    123 C         -42.3589    6.1204   -0.1880 C.3     1  UNL1        0.0621
    124 S         -41.5166    7.5886   -0.1702 S.3     1  UNL1       -0.1331
    125 C         -42.9742    8.4817   -0.2041 C.3     1  UNL1        0.1394
    126 C         -42.9842    9.9238   -0.3165 C.3     1  UNL1        0.2809
    127 O         -44.1596   10.4471   -0.8322 O.3     1  UNL1       -0.3409
    128 C         -45.6913    9.9757   -1.0328 C.3     1  UNL1        0.0540
    129 C         -47.2100   11.2492   -1.2431 C.3     1  UNL1       -0.0177
    130 C         -47.0439   12.2726   -2.2610 C.3     1  UNL1       -0.0481
    131 C         -45.7672   13.0317   -2.1957 C.3     1  UNL1       -0.0530
    132 C         -45.5624   14.0343   -3.2495 C.3     1  UNL1       -0.0559
    133 C         -44.2080   14.7083   -3.0335 C.3     1  UNL1       -0.0653
    134 C         -48.9172   10.7616   -1.1960 C.3     1  UNL1       -0.0510
    135 C         -49.9149   11.8444   -0.8619 C.3     1  UNL1       -0.0650
    136 O         -42.0142   10.6581   -0.1413 O.3     1  UNL1       -0.1889
    137 C         -43.9914    7.5640   -0.1938 C.3     1  UNL1        0.1774
    138 F         -45.2088    7.8955   -0.1985 F       1  UNL1       -0.2361
    139 C         -43.6966    6.2033   -0.1992 C.3     1  UNL1        0.0552
    140 C         -44.5458    5.0427   -0.2104 C.3     1  UNL1        0.0608
    141 C         -46.0031    4.7765   -0.2295 C.3     1  UNL1        0.0539
    142 C         -47.0849    3.8653   -0.2478 C.3     1  UNL1       -0.0083
    143 C         -48.5455    4.5298   -0.2717 C.3     1  UNL1        0.0373
    144 C         -49.9564    4.2060   -0.3308 C.3     1  UNL1        0.1246
    145 O         -50.2587    2.8831   -0.5208 O.3     1  UNL1       -0.3681
    146 C         -51.6179    2.5066   -0.3539 C.3     1  UNL1        0.0514
    147 C         -51.6919    0.9966   -0.2911 C.3     1  UNL1       -0.0178
    148 C         -50.9855    0.4714    0.9728 C.3     1  UNL1       -0.0510
    149 C         -49.5156    0.8342    1.0477 C.3     1  UNL1       -0.0650
    150 C         -53.1651    0.5789   -0.3187 C.3     1  UNL1       -0.0481
    151 C         -53.2877   -0.9351   -0.3344 C.3     1  UNL1       -0.0530
    152 C         -54.7388   -1.3669   -0.3517 C.3     1  UNL1       -0.0559
    153 C         -54.8143   -2.8804   -0.3449 C.3     1  UNL1       -0.0653
    154 C         -50.9751    5.2569   -0.3055 C.3     1  UNL1        0.0768
    155 S         -52.7134    5.2718   -0.3219 S.3     1  UNL1       -0.1389
    156 C         -52.9080    6.9635   -0.3133 C.3     1  UNL1        0.0546
    157 C         -54.1451    7.6979   -0.3260 C.3     1  UNL1        0.0669
    158 C         -55.4056    7.1728   -0.3382 C.3     1  UNL1        0.0617
    159 S         -55.8943    5.6051   -0.3342 S.3     1  UNL1       -0.1331
    160 C         -57.5581    6.0232   -0.3742 C.3     1  UNL1        0.1394
    161 C         -58.3354    4.7752   -0.4188 C.3     1  UNL1        0.2809
    162 O         -59.6668    4.8303   -0.6305 O.3     1  UNL1       -0.3409
    163 C         -60.3714    6.0346   -0.4563 C.3     1  UNL1        0.0540
    164 C         -61.8673    5.7854   -0.4191 C.3     1  UNL1       -0.0177
    165 C         -62.2760    4.9860    0.8279 C.3     1  UNL1       -0.0481
    166 C         -61.6477    3.6073    0.8742 C.3     1  UNL1       -0.0530
    167 C         -62.0866    2.8424    2.1004 C.3     1  UNL1       -0.0559
    168 C         -61.3967    1.4936    2.1006 C.3     1  UNL1       -0.0653
    169 C         -62.5494    7.1559   -0.4349 C.3     1  UNL1       -0.0510
    170 C         -64.0570    7.0229   -0.4671 C.3     1  UNL1       -0.0650
    171 O         -57.8368    3.6496   -0.3422 O.3     1  UNL1       -0.1889
    172 C         -57.6792    7.4301   -0.3711 C.3     1  UNL1        0.1771
    173 F         -58.7993    8.1051   -0.3856 F       1  UNL1       -0.2361
    174 C         -56.3900    8.0887   -0.3512 C.3     1  UNL1        0.0505
    175 C         -55.9989    9.4182   -0.3458 C.3     1  UNL1        0.0292
    176 S         -54.1953    9.4670   -0.3279 S.3     1  UNL1       -0.1444
    177 C         -51.6797    7.5377   -0.3007 C.3     1  UNL1       -0.0083
    178 C         -50.6196    6.5911   -0.2791 C.3     1  UNL1        0.0373
    179 C         -49.2879    6.8658   -0.2346 C.3     1  UNL1        0.1246
    180 O         -49.0025    8.2009   -0.1151 O.3     1  UNL1       -0.3681
    181 C         -47.6440    8.5477    0.1997 C.3     1  UNL1        0.0514
    182 C         -47.3597   10.0554    0.7645 C.3     1  UNL1       -0.0178
    183 C         -48.3385   10.6503    1.7147 C.3     1  UNL1       -0.0510
    184 C         -49.8137   10.2460    1.8047 C.3     1  UNL1       -0.0650
    185 C         -45.9257   11.3123    0.8044 C.3     1  UNL1       -0.0481
    186 C         -45.7785   12.8272    0.7756 C.3     1  UNL1       -0.0530
    187 C         -44.2536   13.0971    0.3326 C.3     1  UNL1       -0.0559
    188 C         -44.1169   14.5705    0.2191 C.3     1  UNL1       -0.0653
    189 C         -48.3399    5.8702   -0.2520 C.3     1  UNL1        0.0768
    190 S         -46.7579    6.1644   -0.3177 S.3     1  UNL1       -0.1389
    191 S         -43.4512    3.7160   -0.2001 S.3     1  UNL1       -0.1393
    192 C         -39.5476    4.8901   -0.1699 C.3     1  UNL1       -0.0083
    193 C         -38.4386    3.9979   -0.1508 C.3     1  UNL1        0.0373
    194 C         -37.1218    4.3410   -0.1110 C.3     1  UNL1        0.1246
    195 O         -36.9066    5.6878    0.0040 O.3     1  UNL1       -0.3681
    196 C         -35.5689    6.1092    0.3161 C.3     1  UNL1        0.0514
    197 C         -35.3728    7.6309    0.8796 C.3     1  UNL1       -0.0178
    198 C         -36.3808    8.1652    1.8352 C.3     1  UNL1       -0.0510
    199 C         -37.8287    7.6745    1.9309 C.3     1  UNL1       -0.0650
    200 C         -34.0152    8.9722    0.9132 C.3     1  UNL1       -0.0481
    201 C         -33.9580   10.4926    0.8844 C.3     1  UNL1       -0.0530
    202 C         -32.4528   10.8514    0.4373 C.3     1  UNL1       -0.0559
    203 C         -32.4045   12.3300    0.3237 C.3     1  UNL1       -0.0653
    204 C         -36.1188    3.4003   -0.1296 C.3     1  UNL1        0.0768
    205 S         -34.5542    3.7807   -0.1991 S.3     1  UNL1       -0.1389
    206 S         -31.1000    1.5334   -0.0916 S.3     1  UNL1       -0.1393
    207 C         -27.2702    2.9371   -0.0753 C.3     1  UNL1       -0.0083
    208 C         -26.1100    2.1119   -0.0601 C.3     1  UNL1        0.0373
    209 C         -24.8157    2.5322   -0.0284 C.3     1  UNL1        0.1246
    210 O         -24.6811    3.8898    0.0763 O.3     1  UNL1       -0.3681
    211 C         -23.3713    4.3904    0.3873 C.3     1  UNL1        0.0514
    212 C         -23.2649    5.9246    0.9627 C.3     1  UNL1       -0.0178
    213 C         -24.2981    6.3952    1.9226 C.3     1  UNL1       -0.0510
    214 C         -25.7127    5.8174    2.0205 C.3     1  UNL1       -0.0650
    215 C         -21.9907    7.3480    0.9862 C.3     1  UNL1       -0.0481
    216 C         -22.0206    8.8704    0.9488 C.3     1  UNL1       -0.0530
    217 C         -20.5372    9.3140    0.4958 C.3     1  UNL1       -0.0559
    218 C         -20.5755   10.7930    0.3841 C.3     1  UNL1       -0.0653
    219 C         -23.7581    1.6532   -0.0452 C.3     1  UNL1        0.0768
    220 S         -22.2188    2.1257   -0.1066 S.3     1  UNL1       -0.1389
    221 S         -18.6361    0.0877   -0.0231 S.3     1  UNL1       -0.1393
    222 C         -14.8968    1.7187   -0.0204 C.3     1  UNL1       -0.0083
    223 C         -13.6892    0.9646   -0.0090 C.3     1  UNL1        0.0373
    224 C         -12.4218    1.4613    0.0203 C.3     1  UNL1        0.1246
    225 O         -12.3683    2.8242    0.1291 O.3     1  UNL1       -0.3681
    226 C         -11.0886    3.4015    0.4330 C.3     1  UNL1        0.0514
    227 C         -11.0730    4.9381    0.9963 C.3     1  UNL1       -0.0178
    228 C         -12.1279    5.3471    1.9631 C.3     1  UNL1       -0.0510
    229 C         -13.5068    4.6881    2.0694 C.3     1  UNL1       -0.0650
    230 C          -9.8825    6.4344    1.0190 C.3     1  UNL1       -0.0481
    231 C         -10.0047    7.9503    0.9912 C.3     1  UNL1       -0.0530
    232 C          -8.5545    8.4832    0.5354 C.3     1  UNL1       -0.0559
    233 C          -8.6828    9.9568    0.4231 C.3     1  UNL1       -0.0653
    234 C         -11.3132    0.6471   -0.0024 C.3     1  UNL1        0.0768
    235 S          -9.8037    1.2098   -0.0746 S.3     1  UNL1       -0.1389
    236 S          -6.0908   -0.6078    0.0029 S.3     1  UNL1       -0.1393
    237 C          -2.4583    1.2954   -0.0084 C.3     1  UNL1       -0.0083
    238 C          -1.1689    0.6829   -0.0111 C.3     1  UNL1        0.0373
    239 C           0.0647    1.3291   -0.0577 C.3     1  UNL1        0.1246
    240 O          -0.0238    2.7059   -0.2248 O.3     1  UNL1       -0.3681
    241 C           1.1496    3.4865   -0.0667 C.3     1  UNL1        0.0514
    242 C           0.8823    4.9667   -0.0065 C.3     1  UNL1       -0.0178
    243 C           0.0838    5.2988    1.2599 C.3     1  UNL1       -0.0510
    244 C          -1.2481    4.5863    1.3184 C.3     1  UNL1       -0.0650
    245 C           2.2394    5.6939   -0.0118 C.3     1  UNL1       -0.0481
    246 C           2.0201    7.1945   -0.0254 C.3     1  UNL1       -0.0530
    247 C           3.3316    7.9502   -0.0246 C.3     1  UNL1       -0.0559
    248 C           3.0485    9.4392   -0.0183 C.3     1  UNL1       -0.0653
    249 C           1.2576    0.6109   -0.0103 C.3     1  UNL1        0.0764
    250 S           2.8295    1.2978    0.0135 S.3     1  UNL1       -0.1440
    251 H           4.6935   -0.0011   -0.0034 H       1  UNL1        0.0426
    252 H           3.1279   -2.1958   -0.0092 H       1  UNL1        0.0322
    253 H          -1.8270   -3.4224   -0.9287 H       1  UNL1        0.0563
    254 H          -1.7191   -3.3468    0.8816 H       1  UNL1        0.0563
    255 H          -0.3475   -5.3897   -0.8866 H       1  UNL1        0.0323
    256 H           0.1083   -6.5485    1.2807 H       1  UNL1        0.0266
    257 H          -0.6839   -5.2442    2.1598 H       1  UNL1        0.0266
    258 H           1.8032   -4.9834    0.3964 H       1  UNL1        0.0230
    259 H           1.8150   -5.1184    2.1775 H       1  UNL1        0.0230
    260 H           1.1338   -3.7073    1.4470 H       1  UNL1        0.0230
    261 H          -2.8435   -5.6088   -0.8858 H       1  UNL1        0.0269
    262 H          -2.8558   -5.6167    0.8756 H       1  UNL1        0.0269
    263 H          -1.4606   -7.7060    0.8726 H       1  UNL1        0.0265
    264 H          -1.4173   -7.6641   -0.8908 H       1  UNL1        0.0265
    265 H          -3.9192   -7.8948   -0.8949 H       1  UNL1        0.0263
    266 H          -3.9114   -7.8931    0.8761 H       1  UNL1        0.0263
    267 H          -2.4682   -9.9384   -0.8887 H       1  UNL1        0.0230
    268 H          -3.9830  -10.2127   -0.0014 H       1  UNL1        0.0230
    269 H          -2.4703   -9.9328    0.8842 H       1  UNL1        0.0230
    270 H          -9.3131    4.6821    0.2670 H       1  UNL1        0.0564
    271 H          -9.2496    4.4400   -1.5739 H       1  UNL1        0.0564
    272 H         -11.4888    6.7252   -0.0922 H       1  UNL1        0.0323
    273 H         -12.1061    7.7241   -1.8344 H       1  UNL1        0.0269
    274 H         -11.1656    6.5146   -2.8661 H       1  UNL1        0.0269
    275 H          -9.0940    7.6556   -1.9540 H       1  UNL1        0.0265
    276 H         -10.2402    8.8283   -1.1700 H       1  UNL1        0.0265
    277 H         -10.9884    9.7191   -2.9151 H       1  UNL1        0.0263
    278 H          -9.9870    8.5768   -3.9359 H       1  UNL1        0.0263
    279 H          -8.9039   10.7904   -2.0073 H       1  UNL1        0.0230
    280 H          -8.7323   10.6970   -3.6985 H       1  UNL1        0.0230
    281 H          -7.9158    9.4922   -2.6294 H       1  UNL1        0.0230
    282 H         -12.9276    4.7130   -0.0845 H       1  UNL1        0.0266
    283 H         -12.8556    4.6069   -1.7022 H       1  UNL1        0.0266
    284 H         -13.8703    6.7302    0.4047 H       1  UNL1        0.0230
    285 H         -14.7999    5.6122   -0.6041 H       1  UNL1        0.0230
    286 H         -13.9207    6.9962   -1.3514 H       1  UNL1        0.0230
    287 H          -9.3806   -2.1287   -0.0115 H       1  UNL1        0.0325
    288 H         -14.5538   -3.0041   -0.9455 H       1  UNL1        0.0563
    289 H         -14.4313   -2.9311    0.8676 H       1  UNL1        0.0563
    290 H         -13.1738   -5.0407   -0.8979 H       1  UNL1        0.0323
    291 H         -12.7858   -6.2151    1.2742 H       1  UNL1        0.0266
    292 H         -13.5040   -4.8629    2.1479 H       1  UNL1        0.0266
    293 H         -10.9999   -4.7485    0.3920 H       1  UNL1        0.0230
    294 H         -11.0008   -4.8867    2.1728 H       1  UNL1        0.0230
    295 H         -11.5945   -3.4379    1.4457 H       1  UNL1        0.0230
    296 H         -15.6760   -5.1016   -0.9053 H       1  UNL1        0.0269
    297 H         -15.6946   -5.1089    0.8564 H       1  UNL1        0.0269
    298 H         -14.4219   -7.2742    0.8556 H       1  UNL1        0.0265
    299 H         -14.3709   -7.2337   -0.9079 H       1  UNL1        0.0265
    300 H         -16.8817   -7.3133   -0.9198 H       1  UNL1        0.0263
    301 H         -16.8793   -7.3129    0.8514 H       1  UNL1        0.0263
    302 H         -15.5541   -9.4389   -0.9104 H       1  UNL1        0.0230
    303 H         -17.0857   -9.6237   -0.0279 H       1  UNL1        0.0230
    304 H         -15.5614   -9.4340    0.8625 H       1  UNL1        0.0230
    305 H         -21.5324    5.5579    0.2223 H       1  UNL1        0.0564
    306 H         -21.4564    5.3187   -1.6179 H       1  UNL1        0.0564
    307 H         -23.5642    7.7268   -0.1431 H       1  UNL1        0.0323
    308 H         -24.1196    8.7647   -1.8777 H       1  UNL1        0.0269
    309 H         -23.2522    7.5065   -2.9155 H       1  UNL1        0.0269
    310 H         -21.1179    8.5203   -1.9903 H       1  UNL1        0.0265
    311 H         -22.1967    9.7599   -1.2128 H       1  UNL1        0.0265
    312 H         -22.8829   10.6932   -2.9586 H       1  UNL1        0.0263
    313 H         -21.9480    9.4928   -3.9764 H       1  UNL1        0.0263
    314 H         -20.7408   11.6384   -2.0441 H       1  UNL1        0.0230
    315 H         -20.5686   11.5338   -3.7343 H       1  UNL1        0.0230
    316 H         -19.8305   10.2823   -2.6615 H       1  UNL1        0.0230
    317 H         -25.1248    5.8093   -0.1320 H       1  UNL1        0.0266
    318 H         -25.0595    5.6977   -1.7497 H       1  UNL1        0.0266
    319 H         -25.9477    7.8789    0.3558 H       1  UNL1        0.0230
    320 H         -26.9384    6.8193   -0.6568 H       1  UNL1        0.0230
    321 H         -25.9754    8.1476   -1.4005 H       1  UNL1        0.0230
    322 H         -21.9928   -1.2321   -0.0472 H       1  UNL1        0.0325
    323 H         -27.2055   -1.7985   -0.9966 H       1  UNL1        0.0563
    324 H         -27.0844   -1.7317    0.8168 H       1  UNL1        0.0563
    325 H         -25.9491   -3.9135   -0.9436 H       1  UNL1        0.0323
    326 H         -25.6384   -5.1073    1.2304 H       1  UNL1        0.0266
    327 H         -26.2776   -3.7142    2.1011 H       1  UNL1        0.0266
    328 H         -23.7657   -3.7502    0.3530 H       1  UNL1        0.0230
    329 H         -23.7803   -3.8868    2.1339 H       1  UNL1        0.0230
    330 H         -24.2846   -2.4058    1.4042 H       1  UNL1        0.0230
    331 H         -28.4504   -3.8255   -0.9589 H       1  UNL1        0.0269
    332 H         -28.4749   -3.8304    0.8028 H       1  UNL1        0.0269
    333 H         -27.3333   -6.0675    0.8072 H       1  UNL1        0.0265
    334 H         -27.2745   -6.0314   -0.9562 H       1  UNL1        0.0265
    335 H         -29.7855   -5.9615   -0.9760 H       1  UNL1        0.0263
    336 H         -29.7886   -5.9600    0.7952 H       1  UNL1        0.0263
    337 H         -28.5867   -8.1623   -0.9613 H       1  UNL1        0.0230
    338 H         -30.1293   -8.2550   -0.0835 H       1  UNL1        0.0230
    339 H         -28.5992   -8.1557    0.8116 H       1  UNL1        0.0230
    340 H         -33.6486    7.1752    0.1445 H       1  UNL1        0.0564
    341 H         -33.6143    6.9197   -1.6903 H       1  UNL1        0.0564
    342 H         -35.5675    9.4546   -0.2185 H       1  UNL1        0.0323
    343 H         -36.0515   10.5214   -1.9638 H       1  UNL1        0.0269
    344 H         -35.2535    9.2090   -2.9900 H       1  UNL1        0.0269
    345 H         -33.0683   10.0921   -2.0587 H       1  UNL1        0.0265
    346 H         -34.0713   11.3920   -1.2807 H       1  UNL1        0.0265
    347 H         -34.6970   12.3672   -3.0314 H       1  UNL1        0.0263
    348 H         -33.8316   11.1150   -4.0468 H       1  UNL1        0.0263
    349 H         -32.5070   13.1839   -2.1090 H       1  UNL1        0.0230
    350 H         -32.3368   13.0714   -3.7995 H       1  UNL1        0.0230
    351 H         -31.6752   11.7782   -2.7266 H       1  UNL1        0.0230
    352 H         -37.2335    7.6291   -0.2204 H       1  UNL1        0.0266
    353 H         -37.1643    7.5117   -1.8376 H       1  UNL1        0.0266
    354 H         -37.9345    9.7422    0.2629 H       1  UNL1        0.0230
    355 H         -38.9841    8.7419   -0.7515 H       1  UNL1        0.0230
    356 H         -37.9433   10.0131   -1.4925 H       1  UNL1        0.0230
    357 H         -34.5287    0.4148   -0.1287 H       1  UNL1        0.0325
    358 H         -39.7621    0.1596   -1.0980 H       1  UNL1        0.0563
    359 H         -39.6438    0.2169    0.7159 H       1  UNL1        0.0563
    360 H         -38.6340   -2.0265   -1.0438 H       1  UNL1        0.0323
    361 H         -38.4027   -3.2395    1.1295 H       1  UNL1        0.0266
    362 H         -38.9609   -1.8119    2.0000 H       1  UNL1        0.0266
    363 H         -36.4494   -1.9950    0.2607 H       1  UNL1        0.0230
    364 H         -36.4785   -2.1328    2.0413 H       1  UNL1        0.0230
    365 H         -36.8911   -0.6235    1.3119 H       1  UNL1        0.0230
    366 H         -41.1256   -1.7898   -1.0676 H       1  UNL1        0.0269
    367 H         -41.1566   -1.7955    0.6940 H       1  UNL1        0.0269
    368 H         -40.1501   -4.0966    0.6990 H       1  UNL1        0.0265
    369 H         -40.0830   -4.0618   -1.0641 H       1  UNL1        0.0265
    370 H         -42.5853   -3.8427   -1.0925 H       1  UNL1        0.0263
    371 H         -42.5947   -3.8432    0.6787 H       1  UNL1        0.0263
    372 H         -41.5197   -6.1109   -1.0768 H       1  UNL1        0.0230
    373 H         -43.0681   -6.1128   -0.2046 H       1  UNL1        0.0230
    374 H         -41.5381   -6.1058    0.6959 H       1  UNL1        0.0230
    375 H         -45.6625    9.5025    0.0248 H       1  UNL1        0.0564
    376 H         -45.6431    9.2427   -1.8070 H       1  UNL1        0.0564
    377 H         -47.4427   11.8880   -0.3376 H       1  UNL1        0.0323
    378 H         -47.8578   12.9835   -2.0830 H       1  UNL1        0.0269
    379 H         -47.1349   11.6268   -3.1080 H       1  UNL1        0.0269
    380 H         -44.9047   12.3760   -2.1670 H       1  UNL1        0.0265
    381 H         -45.8303   13.7326   -1.3909 H       1  UNL1        0.0265
    382 H         -46.3915   14.7450   -3.1437 H       1  UNL1        0.0263
    383 H         -45.5989   13.4444   -4.1574 H       1  UNL1        0.0263
    384 H         -44.1601   15.4298   -2.2141 H       1  UNL1        0.0230
    385 H         -43.9918   15.3084   -3.9043 H       1  UNL1        0.0230
    386 H         -43.4111   13.9777   -2.8305 H       1  UNL1        0.0230
    387 H         -49.2140   10.1625   -0.3442 H       1  UNL1        0.0266
    388 H         -49.1474   10.0419   -1.9616 H       1  UNL1        0.0266
    389 H         -49.7919   12.3135    0.1363 H       1  UNL1        0.0230
    390 H         -50.9100   11.3755   -0.8724 H       1  UNL1        0.0230
    391 H         -49.7834   12.5833   -1.6163 H       1  UNL1        0.0230
    392 H         -46.9325    2.8000   -0.2485 H       1  UNL1        0.0325
    393 H         -52.1677    2.8482   -1.2365 H       1  UNL1        0.0563
    394 H         -52.0503    2.8972    0.5797 H       1  UNL1        0.0563
    395 H         -51.1826    0.6020   -1.1789 H       1  UNL1        0.0323
    396 H         -51.0313   -0.6186    0.9975 H       1  UNL1        0.0266
    397 H         -51.5070    0.8414    1.8645 H       1  UNL1        0.0266
    398 H         -49.0049    0.5111    0.1342 H       1  UNL1        0.0230
    399 H         -49.0472    0.3725    1.9150 H       1  UNL1        0.0230
    400 H         -49.3679    1.9037    1.1884 H       1  UNL1        0.0230
    401 H         -53.6559    0.9957   -1.2090 H       1  UNL1        0.0269
    402 H         -53.6923    0.9910    0.5521 H       1  UNL1        0.0269
    403 H         -52.8268   -1.3667    0.5586 H       1  UNL1        0.0265
    404 H         -52.7525   -1.3350   -1.2043 H       1  UNL1        0.0265
    405 H         -55.2369   -0.9665   -1.2401 H       1  UNL1        0.0263
    406 H         -55.2517   -0.9675    0.5311 H       1  UNL1        0.0263
    407 H         -54.3079   -3.2942   -1.2229 H       1  UNL1        0.0230
    408 H         -55.8565   -3.2046   -0.3554 H       1  UNL1        0.0230
    409 H         -54.3314   -3.2891    0.5498 H       1  UNL1        0.0230
    410 H         -60.1299    6.6259   -1.3378 H       1  UNL1        0.0564
    411 H         -60.0741    6.5035    0.4880 H       1  UNL1        0.0564
    412 H         -62.1498    5.2136   -1.3129 H       1  UNL1        0.0323
    413 H         -63.3600    4.8436    0.8430 H       1  UNL1        0.0269
    414 H         -62.0126    5.5519    1.7308 H       1  UNL1        0.0269
    415 H         -60.5645    3.6755    0.9560 H       1  UNL1        0.0265
    416 H         -61.8927    3.0618   -0.0458 H       1  UNL1        0.0265
    417 H         -63.1737    2.7248    2.1035 H       1  UNL1        0.0263
    418 H         -61.7989    3.4059    2.9959 H       1  UNL1        0.0263
    419 H         -61.6660    0.9263    1.2037 H       1  UNL1        0.0230
    420 H         -61.6894    0.9249    2.9835 H       1  UNL1        0.0230
    421 H         -60.3068    1.6135    2.1073 H       1  UNL1        0.0230
    422 H         -62.2155    7.7217   -1.3143 H       1  UNL1        0.0266
    423 H         -62.2443    7.7346    0.4469 H       1  UNL1        0.0266
    424 H         -64.3648    6.4488   -1.3460 H       1  UNL1        0.0230
    425 H         -64.5257    8.0070   -0.4950 H       1  UNL1        0.0230
    426 H         -64.4328    6.5155    0.4247 H       1  UNL1        0.0230
    427 H         -56.4568   10.3977   -0.3496 H       1  UNL1        0.0430
    428 H         -51.5201    8.6080   -0.3047 H       1  UNL1        0.0325
    429 H         -47.2118    8.3244   -0.8596 H       1  UNL1        0.0563
    430 H         -47.2612    7.9886    1.0182 H       1  UNL1        0.0563
    431 H         -47.5344    9.8960   -0.2805 H       1  UNL1        0.0323
    432 H         -48.3178   11.7402    1.6233 H       1  UNL1        0.0266
    433 H         -47.7814   10.4188    2.6158 H       1  UNL1        0.0266
    434 H         -50.4701   10.5681    0.9983 H       1  UNL1        0.0230
    435 H         -50.2919   10.7878    2.6196 H       1  UNL1        0.0230
    436 H         -49.9720    9.1706    1.7927 H       1  UNL1        0.0230
    437 H         -45.5331   11.5446   -0.2166 H       1  UNL1        0.0269
    438 H         -45.1564   10.9153    1.4379 H       1  UNL1        0.0269
    439 H         -46.0392   13.2351    1.7196 H       1  UNL1        0.0265
    440 H         -46.4773   13.3588    0.1165 H       1  UNL1        0.0265
    441 H         -43.8360   12.6749   -0.6123 H       1  UNL1        0.0263
    442 H         -43.6209   12.6217    1.0790 H       1  UNL1        0.0263
    443 H         -44.7323   14.9786   -0.5716 H       1  UNL1        0.0230
    444 H         -43.0826   14.8413    0.0219 H       1  UNL1        0.0230
    445 H         -44.5760   14.9906    1.0999 H       1  UNL1        0.0230
    446 H         -39.4262    5.9663   -0.1756 H       1  UNL1        0.0325
    447 H         -35.1261    5.9091   -0.7445 H       1  UNL1        0.0563
    448 H         -35.1527    5.5739    1.1342 H       1  UNL1        0.0563
    449 H         -35.5411    7.4574   -0.1656 H       1  UNL1        0.0323
    450 H         -36.4262    9.2543    1.7443 H       1  UNL1        0.0266
    451 H         -35.8069    7.9671    2.7336 H       1  UNL1        0.0266
    452 H         -38.5031    7.9580    1.1258 H       1  UNL1        0.0230
    453 H         -38.3368    8.1883    2.7459 H       1  UNL1        0.0230
    454 H         -37.9240    6.5917    1.9198 H       1  UNL1        0.0230
    455 H         -33.6389    9.2278   -0.1107 H       1  UNL1        0.0269
    456 H         -33.2244    8.6235    1.5485 H       1  UNL1        0.0269
    457 H         -34.2383   10.8831    1.8299 H       1  UNL1        0.0265
    458 H         -34.6898   10.9821    0.2286 H       1  UNL1        0.0265
    459 H         -32.0130   10.4537   -0.5084 H       1  UNL1        0.0263
    460 H         -31.7915   10.4147    1.1827 H       1  UNL1        0.0263
    461 H         -33.0458   12.7004   -0.4649 H       1  UNL1        0.0230
    462 H         -31.3889   12.6620    0.1233 H       1  UNL1        0.0230
    463 H         -32.8852   12.7220    1.2060 H       1  UNL1        0.0230
    464 H         -27.2124    4.0187   -0.0832 H       1  UNL1        0.0325
    465 H         -22.9168    4.2176   -0.6756 H       1  UNL1        0.0563
    466 H         -22.9233    3.8818    1.2055 H       1  UNL1        0.0563
    467 H         -23.4324    5.7399   -0.0792 H       1  UNL1        0.0323
    468 H         -24.4109    7.4794    1.8316 H       1  UNL1        0.0266
    469 H         -23.7074    6.2304    2.8172 H       1  UNL1        0.0266
    470 H         -26.4049    6.0581    1.2165 H       1  UNL1        0.0230
    471 H         -26.2484    6.3039    2.8343 H       1  UNL1        0.0230
    472 H         -25.7428    4.7307    2.0097 H       1  UNL1        0.0230
    473 H         -21.6307    7.6222   -0.0410 H       1  UNL1        0.0269
    474 H         -21.1873    7.0542    1.6337 H       1  UNL1        0.0269
    475 H         -22.3129    9.2486    1.8955 H       1  UNL1        0.0265
    476 H         -22.7851    9.3154    0.2973 H       1  UNL1        0.0265
    477 H         -20.0748    8.9401   -0.4497 H       1  UNL1        0.0263
    478 H         -19.8514    8.9179    1.2417 H       1  UNL1        0.0263
    479 H         -21.2423   11.1245   -0.4003 H       1  UNL1        0.0230
    480 H         -19.5823   11.1856    0.1803 H       1  UNL1        0.0230
    481 H         -21.0750   11.1545    1.2691 H       1  UNL1        0.0230
    482 H         -14.9035    2.8020   -0.0275 H       1  UNL1        0.0325
    483 H         -10.6294    3.2529   -0.6302 H       1  UNL1        0.0563
    484 H         -10.6078    2.9220    1.2501 H       1  UNL1        0.0563
    485 H         -11.2277    4.7391   -0.0488 H       1  UNL1        0.0323
    486 H         -12.3042    6.4230    1.8748 H       1  UNL1        0.0266
    487 H         -11.5260    5.2184    2.8560 H       1  UNL1        0.0266
    488 H         -14.2158    4.8883    1.2690 H       1  UNL1        0.0230
    489 H         -14.0667    5.1406    2.8868 H       1  UNL1        0.0230
    490 H         -13.4730    3.6016    2.0591 H       1  UNL1        0.0230
    491 H          -9.5430    6.7339   -0.0104 H       1  UNL1        0.0269
    492 H          -9.0573    6.1852    1.6575 H       1  UNL1        0.0269
    493 H         -10.3199    8.3035    1.9401 H       1  UNL1        0.0265
    494 H         -10.7951    8.3504    0.3426 H       1  UNL1        0.0265
    495 H          -8.0752    8.1390   -0.4126 H       1  UNL1        0.0263
    496 H          -7.8428    8.1283    1.2778 H       1  UNL1        0.0263
    497 H          -9.3695   10.2479   -0.3604 H       1  UNL1        0.0230
    498 H          -7.7153   10.4073    0.2162 H       1  UNL1        0.0230
    499 H          -9.2009   10.2884    1.3090 H       1  UNL1        0.0230
    500 H          -2.5660    2.3672   -0.0203 H       1  UNL1        0.0325
    501 H           1.7635    3.3266   -0.9573 H       1  UNL1        0.0563
    502 H           1.6495    3.2553    0.8851 H       1  UNL1        0.0563
    503 H           0.3126    5.2383   -0.9014 H       1  UNL1        0.0323
    504 H          -0.1273    6.3673    1.2937 H       1  UNL1        0.0266
    505 H           0.6785    5.0497    2.1489 H       1  UNL1        0.0266
    506 H          -1.8057    4.7741    0.3951 H       1  UNL1        0.0230
    507 H          -1.8269    4.9146    2.1783 H       1  UNL1        0.0230
    508 H          -1.1223    3.5142    1.4596 H       1  UNL1        0.0230
    509 H           2.8286    5.3999   -0.8924 H       1  UNL1        0.0269
    510 H           2.8380    5.4080    0.8654 H       1  UNL1        0.0269
    511 H           1.4613    7.5039    0.8619 H       1  UNL1        0.0265
    512 H           1.4186    7.4610   -0.9025 H       1  UNL1        0.0265
    513 H           3.9204    7.6797   -0.9064 H       1  UNL1        0.0263
    514 H           3.9126    7.6805    0.8650 H       1  UNL1        0.0263
    515 H           2.4692    9.7234   -0.9029 H       1  UNL1        0.0230
    516 H           3.9846   10.0002   -0.0162 H       1  UNL1        0.0230
    517 H           2.4714    9.7205    0.8697 H       1  UNL1        0.0230
@<TRIPOS>BOND
     1   411   163    1
     2   502   241    1
     3   509   245    1
     4   253     6    1
     5   303    48    1
     6   369   116    1
     7   404   151    1
     8   302    48    1
     9   299    46    1
    10   275    26    1
    11   370   117    1
    12    95    96    1
    13    23    24    1
    14    47    48    1
    15   143   144    1
    16   119   120    1
    17   373   118    1
    18   115   116    1
    19    19    20    1
    20   236    35    1
    21    91    92    1
    22    89    90    1
    23   348    97    1
    24   185   186    1
    25   507   244    1
    26   172   174    1
    27   310    61    1
    28   325    77    1
    29   464   207    1
    30   147   150    1
    31     2     3    1
    32   235    36    1
    33   106   205    1
    34   469   213    1
    35    16    17    1
    36    40    41    1
    37   112   113    1
    38   377   129    1
    39   164   165    1
    40   212   213    1
    41   254     6    1
    42   355   100    1
    43   158   174    1
    44   311    61    1
    45    37    38    1
    46    61    62    1
    47   109   110    1
    48   157   158    1
    49   476   216    1
    50    20    32    1
    51   332    80    1
    52   436   184    1
    53   293    44    1
    54   513   247    1
    55   280    28    1
    56   432   183    1
    57   344    95    1
    58   255     7    1
    59   399   149    1
    60    43    42    1
    61   508   244    1
    62   157   176    1
    63   440   186    1
    64   441   187    1
    65   517   248    1
    66   496   232    1
    67    82    83    1
    68   398   149    1
    69   178   179    1
    70   226   227    1
    71   346    96    1
    72   495   232    1
    73   327    78    1
    74   421   168    1
    75   256     8    1
    76    88   104    1
    77   376   128    1
    78    25    26    1
    79    97    98    1
    80   121   122    1
    81   281    28    1
    82   338    83    1
    83   267    13    1
    84   480   218    1
    85   339    83    1
    86   234   235    1
    87   266    12    1
    88    50    51    1
    89    74    75    1
    90   146   147    1
    91   194   195    1
    92   242   243    1
    93   125   137    1
    94    51    52    1
    95   147   148    1
    96   195   196    1
    97   143   189    1
    98   430   181    1
    99   279    28    1
   100   359   111    1
   101   391   135    1
   102   220    71    1
   103   212   215    1
   104   498   233    1
   105   312    62    1
   106   424   170    1
   107    53    69    1
   108   341    93    1
   109   413   165    1
   110   500   237    1
   111    18    34    1
   112   306    58    1
   113   462   203    1
   114   290    42    1
   115   287    37    1
   116   294    44    1
   117    72    73    1
   118   216   217    1
   119   156   177    1
   120   336    82    1
   121   144   154    1
   122   485   227    1
   123   492   230    1
   124   240   241    1
   125   405   152    1
   126   375   128    1
   127   372   118    1
   128   389   135    1
   129   269    13    1
   130   510   245    1
   131   429   181    1
   132     5     6    1
   133    29    30    1
   134    53    54    1
   135   125   126    1
   136   197   198    1
   137    91   101    1
   138   119   193    1
   139    90   102    1
   140   197   200    1
   141   132   133    1
   142    12    13    1
   143    36    37    1
   144    60    61    1
   145   108   109    1
   146   154   178    1
   147   156   157    1
   148   450   198    1
   149    52    53    1
   150   148   149    1
   151   196   197    1
   152   515   248    1
   153   238    14    1
   154   478   217    1
   155   297    45    1
   156    87    88    1
   157   159   160    1
   158   183   184    1
   159   207   208    1
   160   105   106    1
   161   129   130    1
   162   219   209    1
   163   231   232    1
   164   365   114    1
   165    71    72    1
   166    14    15    1
   167    38    39    1
   168    62    63    1
   169   110   111    1
   170   134   135    1
   171   158   159    1
   172   288    41    1
   173    67    68    1
   174   163   164    1
   175    74    84    1
   176   194   204    1
   177   161   162    1
   178   209   210    1
   179   211   212    1
   180   108   204    1
   181   417   167    1
   182   474   215    1
   183   488   229    1
   184     6     7    1
   185    54    55    1
   186   102   103    1
   187   126   127    1
   188   150   151    1
   189   198   199    1
   190   471   214    1
   191   407   153    1
   192   140   141    1
   193   428   177    1
   194   435   184    1
   195   451   198    1
   196   475   216    1
   197    85    86    1
   198   181   182    1
   199   309    60    1
   200   486   228    1
   201   431   182    1
   202   121   192    1
   203   263    11    1
   204     7     8    1
   205   127   128    1
   206   262    10    1
   207   434   184    1
   208   361   113    1
   209   324    76    1
   210   442   187    1
   211   423   169    1
   212    56    66    1
   213   224   234    1
   214    58    59    1
   215   154   155    1
   216   449   197    1
   217   202   203    1
   218   484   226    1
   219   123   139    1
   220    94    99    1
   221   387   134    1
   222   472   214    1
   223   295    44    1
   224    14     4    1
   225   446   192    1
   226   463   203    1
   227   385   133    1
   228   393   146    1
   229   234    38    1
   230   304    48    1
   231    80    81    1
   232    56    57    1
   233    18    19    1
   234   221    70    1
   235   152   153    1
   236   200   201    1
   237   224   225    1
   238   305    58    1
   239   437   185    1
   240   427   175    1
   241   473   215    1
   242   409   153    1
   243   126   136    1
   244   490   229    1
   245    21    22    1
   246    45    46    1
   247    93    94    1
   248   117   118    1
   249   141   142    1
   250   189   190    1
   251   501   241    1
   252   504   243    1
   253   374   118    1
   254    35    36    1
   255    11    12    1
   256    59    60    1
   257   326    78    1
   258   107   108    1
   259   131   132    1
   260   155   156    1
   261   392   142    1
   262   223    49    1
   263   273    25    1
   264   179   189    1
   265   483   226    1
   266   258     9    1
   267   357   107    1
   268   301    47    1
   269    55    67    1
   270   493   231    1
   271   467   212    1
   272   261    10    1
   273   455   200    1
   274   368   116    1
   275   276    26    1
   276   351    98    1
   277   296    45    1
   278   211   210    1
   279   396   148    1
   280   482   222    1
   281    22    23    1
   282    46    47    1
   283    94    95    1
   284   353    99    1
   285   142   143    1
   286   334    81    1
   287    24    29    1
   288   330    79    1
   289   272    24    1
   290    67    69    1
   291   465   211    1
   292   340    93    1
   293   364   114    1
   294   425   170    1
   295    81    82    1
   296   177   178    1
   297   225   226    1
   298   249   250    1
   299   335    82    1
   300   481   218    1
   301   317    64    1
   302   356   100    1
   303   412   164    1
   304    86    87    1
   305   182   183    1
   306   418   167    1
   307   230   231    1
   308    43    44    1
   309   386   133    1
   310   139   140    1
   311   380   131    1
   312   186   187    1
   313   298    46    1
   314   187   188    1
   315   307    59    1
   316   395   147    1
   317   343    95    1
   318   349    98    1
   319   236    17    1
   320   252     2    1
   321   457   201    1
   322   318    64    1
   323   454   199    1
   324   426   170    1
   325   277    27    1
   326   239   249    1
   327    64    65    1
   328    88    89    1
   329   160   161    1
   330   208   209    1
   331   232   233    1
   332   420   168    1
   333   378   130    1
   334   264    11    1
   335   347    97    1
   336   363   114    1
   337   282    29    1
   338   448   196    1
   339   497   233    1
   340   350    98    1
   341   259     9    1
   342   397   148    1
   343   278    27    1
   344   314    63    1
   345   204   205    1
   346   285    30    1
   347   129   134    1
   348   291    43    1
   349   394   146    1
   350    49    50    1
   351    73    74    1
   352   145   146    1
   353   169   170    1
   354   193   194    1
   355   452   199    1
   356    21    31    1
   357   217   218    1
   358   487   228    1
   359   241   242    1
   360   366   115    1
   361   354   100    1
   362   400   149    1
   363   444   188    1
   364    26    27    1
   365   122   123    1
   366   422   169    1
   367   414   165    1
   368    27    28    1
   369    99   100    1
   370    59    64    1
   371   123   124    1
   372   382   132    1
   373   447   196    1
   374   489   229    1
   375   239   240    1
   376   491   230    1
   377   286    30    1
   378   331    80    1
   379   477   217    1
   380   260     9    1
   381   514   247    1
   382   406   152    1
   383   329    79    1
   384   371   117    1
   385   316    63    1
   386   367   115    1
   387   321    65    1
   388   505   243    1
   389   242   245    1
   390    77    78    1
   391   245   246    1
   392   313    62    1
   393   289    41    1
   394   383   132    1
   395   466   211    1
   396   102   104    1
   397   161   171    1
   398   137   139    1
   399   390   135    1
   400   345    96    1
   401   503   242    1
   402   516   248    1
   403    77    80    1
   404   379   130    1
   405    84    85    1
   406   180   181    1
   407   228   229    1
   408   124   125    1
   409   322    72    1
   410   265    12    1
   411    15    16    1
   412    39    40    1
   413   111   112    1
   414    57    58    1
   415   201   202    1
   416     7    10    1
   417   410   163    1
   418   453   199    1
   419   320    65    1
   420   408   153    1
   421   499   233    1
   422    90    91    1
   423   162   163    1
   424    17    18    1
   425    41    42    1
   426   113   114    1
   427   137   138    1
   428    45    42    1
   429   182   185    1
   430   315    63    1
   431   271    23    1
   432   358   111    1
   433   237    16    1
   434   270    23    1
   435   122   191    1
   436   468   213    1
   437    78    79    1
   438   174   175    1
   439   222   223    1
   440   227   230    1
   441   246   247    1
   442   419   168    1
   443    49    39    1
   444   433   183    1
   445    20    21    1
   446    92    93    1
   447   116   117    1
   448   470   214    1
   449    84   208    1
   450   257     8    1
   451   251     1    1
   452   112   115    1
   453   160   172    1
   454   274    25    1
   455   443   188    1
   456   250     1    1
   457   342    94    1
   458   151   152    1
   459    55    56    1
   460   175   176    1
   461     5     4    1
   462   456   200    1
   463   223   224    1
   464   247   248    1
   465   249     3    1
   466   215   216    1
   467   221    52    1
   468     4     3    1
   469    32    34    1
   470   384   133    1
   471   219    73    1
   472   292    43    1
   473   328    79    1
   474   319    65    1
   475   105   206    1
   476    34    35    1
   477    10    11    1
   478   106   107    1
   479   130   131    1
   480   460   202    1
   481   506   244    1
   482   308    60    1
   483    86   207    1
   484   494   231    1
   485   337    83    1
   486   128   129    1
   487     8     9    1
   488    32    33    1
   489   104   105    1
   490   511   246    1
   491   360   112    1
   492    75    76    1
   493   219   220    1
   494   243   244    1
   495   268    13    1
   496   403   151    1
   497   167   168    1
   498   415   166    1
   499   140   191    1
   500    69    70    1
   501   141   190    1
   502   165   166    1
   503   213   214    1
   504   237   238    1
   505   401   150    1
   506   164   169    1
   507   362   113    1
   508   179   180    1
   509   227   228    1
   510    87   206    1
   511     1     2    1
   512   352    99    1
   513   416   166    1
   514   458   201    1
   515    24    25    1
   516    96    97    1
   517   120   121    1
   518   144   145    1
   519   192   193    1
   520   461   203    1
   521   222    51    1
   522   300    47    1
   523   459   202    1
   524   445   188    1
   525   381   131    1
   526   512   246    1
   527   109   119    1
   528   283    29    1
   529    70    71    1
   530   166   167    1
   531   238   239    1
   532   479   218    1
   533   438   185    1
   534   402   150    1
   535   388   134    1
   536   439   186    1
   537    76    77    1
   538   172   173    1
   539   333    81    1
   540   323    76    1
   541   284    30    1
