@<TRIPOS>MOLECULE
RES
1547 1621 1 0 1
SMALL
NO_CHARGES
@<TRIPOS>CRYSIN
  178.3469    93.9515    14.7923    90.0000    90.0000    90.0000  1  1
@<TRIPOS>ATOM
       1 C            3.6211    -0.1325     0.0003 C             1 RES     
       2 C            2.7344    -1.1886    -0.0046 C             1 RES     
       3 C            1.2885    -0.7868    -0.0069 C             1 RES     
       4 C           -0.0045    -1.4735    -0.0464 C             1 RES     
       5 O            0.0165    -2.8586    -0.2044 O             1 RES     
       6 C           -1.2000    -3.6079    -0.0502 C             1 RES     
       7 C           -0.9216    -5.1144     0.0072 C             1 RES     
       8 C           -0.1020    -5.4763     1.2592 C             1 RES     
       9 C            1.2407    -4.7815     1.3137 C             1 RES     
      10 C           -2.2546    -5.8882    -0.0022 C             1 RES     
      11 C           -2.0193    -7.3946    -0.0145 C             1 RES     
      12 C           -3.3283    -8.1610    -0.0126 C             1 RES     
      13 C           -3.0459    -9.6510    -0.0042 C             1 RES     
      14 C           -1.2182    -0.7066    -0.0083 C             1 RES     
      15 S           -2.9000    -1.1633    -0.0037 S             1 RES     
      16 C           -3.4983     0.4158     0.0012 C             1 RES     
      17 C           -4.8881     0.7144     0.0012 C             1 RES     
      18 C           -5.4551     1.9618     0.0000 C             1 RES     
      19 S           -4.8828     3.5586     0.0011 S             1 RES     
      20 C           -6.4798     4.1624    -0.0103 C             1 RES     
      21 C           -6.7244     5.6005    -0.1054 C             1 RES     
      22 O           -8.0084     5.8783    -0.5723 O             1 RES     
      23 C           -9.4300     5.1410    -0.7850 C             1 RES     
      24 C          -11.1520     6.1356    -0.9907 C             1 RES     
      25 C          -11.1802     7.1683    -2.0128 C             1 RES     
      26 C          -10.0605     8.1455    -1.9690 C             1 RES     
      27 C          -10.0474     9.1653    -3.0240 C             1 RES     
      28 C           -8.8308    10.0687    -2.8206 C             1 RES     
      29 C          -12.7462     5.3526    -0.9275 C             1 RES     
      30 C          -13.9081     6.2454    -0.5872 C             1 RES     
      31 O           -5.9308     6.4718     0.0386 O             1 RES     
      32 C           -7.3140     3.0861     0.0101 C             1 RES     
      33 F           -8.5780     3.1880     0.0224 F             1 RES     
      34 C           -6.7869     1.8003     0.0022 C             1 RES     
      35 C           -7.4178     0.5066     0.0016 C             1 RES     
      36 C           -8.8105    -0.0171    -0.0020 C             1 RES     
      37 C           -9.7187    -1.1041    -0.0090 C             1 RES     
      38 C          -11.2839    -0.7071    -0.0175 C             1 RES     
      39 C          -12.6201    -1.2697    -0.0617 C             1 RES     
      40 O          -12.6803    -2.6253    -0.2443 O             1 RES     
      41 C          -13.9446    -3.2414    -0.0675 C             1 RES     
      42 C          -13.7389    -4.7415    -0.0058 C             1 RES     
      43 C          -12.9359    -5.1337     1.2493 C             1 RES     
      44 C          -11.5529    -4.5166     1.3081 C             1 RES     
      45 C          -15.1107    -5.4210    -0.0195 C             1 RES     
      46 C          -14.9600    -6.9327    -0.0330 C             1 RES     
      47 C          -16.3113    -7.6162    -0.0358 C             1 RES     
      48 C          -16.1169    -9.1190    -0.0275 C             1 RES     
      49 C          -13.8108    -0.4124    -0.0286 C             1 RES     
      50 S          -15.5259    -0.7089    -0.0286 S             1 RES     
      51 C          -15.9943     0.9232    -0.0197 C             1 RES     
      52 C          -17.3522     1.3248    -0.0221 C             1 RES     
      53 C          -17.8357     2.6086    -0.0241 C             1 RES     
      54 S          -17.1705     4.1645    -0.0173 S             1 RES     
      55 C          -18.7536     4.8131    -0.0431 C             1 RES     
      56 C          -18.7983     6.4219    -0.1201 C             1 RES     
      57 O          -20.2062     6.6851    -0.6523 O             1 RES     
      58 C          -21.6128     6.0318    -0.8816 C             1 RES     
      59 C          -23.2626     7.0961    -1.0738 C             1 RES     
      60 C          -23.2267     8.1523    -2.0751 C             1 RES     
      61 C          -22.0504     9.0619    -2.0103 C             1 RES     
      62 C          -21.9716    10.0835    -3.0634 C             1 RES     
      63 C          -20.7055    10.9141    -2.8565 C             1 RES     
      64 C          -24.8889     6.4267    -0.9886 C             1 RES     
      65 C          -25.9956     7.3923    -0.6423 C             1 RES     
      66 O          -18.0698     7.1641     0.0015 O             1 RES     
      67 C          -19.5909     3.8307    -0.0179 C             1 RES     
      68 F          -20.9109     4.0267     0.0053 F             1 RES     
      69 C          -19.1806     2.5202    -0.0267 C             1 RES     
      70 C          -19.8837     1.2745    -0.0285 C             1 RES     
      71 C          -21.3027     0.8412    -0.0363 C             1 RES     
      72 C          -22.2715    -0.1898    -0.0457 C             1 RES     
      73 C          -23.8090     0.2998    -0.0596 C             1 RES     
      74 C          -25.1755    -0.1821    -0.1076 C             1 RES     
      75 O          -25.3150    -1.5317    -0.2898 O             1 RES     
      76 C          -26.6143    -2.0711    -0.1166 C             1 RES     
      77 C          -26.4982    -3.5807    -0.0534 C             1 RES     
      78 C          -25.7238    -4.0189     1.2045 C             1 RES     
      79 C          -24.3068    -3.4852     1.2673 C             1 RES     
      80 C          -27.9080    -4.1773    -0.0711 C             1 RES     
      81 C          -27.8474    -5.6953    -0.0833 C             1 RES     
      82 C          -29.2369    -6.2971    -0.0900 C             1 RES     
      83 C          -29.1323    -7.8088    -0.0804 C             1 RES     
      84 C          -26.3133     0.7449    -0.0789 C             1 RES     
      85 S          -28.0435     0.5513    -0.0839 S             1 RES     
      86 C          -28.4142     2.2092    -0.0775 C             1 RES     
      87 C          -29.7466     2.6954    -0.0841 C             1 RES     
      88 C          -30.1522     4.0041    -0.0849 C             1 RES     
      89 S          -29.3962     5.5182    -0.0714 S             1 RES     
      90 C          -30.9043     6.3201    -0.0984 C             1 RES     
      91 C          -30.9888     7.7642    -0.2033 C             1 RES     
      92 O          -32.2062     8.2053    -0.6969 O             1 RES     
      93 C          -33.7070     7.6418    -0.9023 C             1 RES     
      94 C          -35.2990     8.8313    -1.1136 C             1 RES     
      95 C          -35.1974     9.8594    -2.1347 C             1 RES     
      96 C          -33.9691    10.6947    -2.0804 C             1 RES     
      97 C          -33.8279    11.7057    -3.1344 C             1 RES     
      98 C          -32.5146    12.4588    -2.9227 C             1 RES     
      99 C          -36.9733     8.2413    -1.0621 C             1 RES     
     100 C          -38.0244     9.2654    -0.7292 C             1 RES     
     101 O          -30.0751     8.5490    -0.0433 O             1 RES     
     102 C          -31.8652     5.3468    -0.0865 C             1 RES     
     103 F          -33.1036     5.5986    -0.0872 F             1 RES     
     104 C          -31.4929     4.0072    -0.0923 C             1 RES     
     105 C          -32.2745     2.7995    -0.0997 C             1 RES     
     106 C          -33.7158     2.4448    -0.1133 C             1 RES     
     107 C          -34.7442     1.4722    -0.1274 C             1 RES     
     108 C          -36.2498     2.0521    -0.1461 C             1 RES     
     109 C          -37.6425     1.6521    -0.1997 C             1 RES     
     110 O          -37.8616     0.3132    -0.3840 O             1 RES     
     111 C          -39.1912    -0.1486    -0.2164 C             1 RES     
     112 C          -39.1655    -1.6626    -0.1550 C             1 RES     
     113 C          -38.4231    -2.1479     1.1049 C             1 RES     
     114 C          -36.9771    -1.6994     1.1734 C             1 RES     
     115 C          -40.6082    -2.1744    -0.1785 C             1 RES     
     116 C          -40.6380    -3.6933    -0.1927 C             1 RES     
     117 C          -42.0609    -4.2115    -0.2051 C             1 RES     
     118 C          -42.0464    -5.7267    -0.1973 C             1 RES     
     119 C          -38.7231     2.6449    -0.1735 C             1 RES     
     120 S          -40.4617     2.5544    -0.1851 S             1 RES     
     121 C          -40.7335     4.2314    -0.1774 C             1 RES     
     122 C          -42.0347     4.7959    -0.1878 C             1 RES     
     123 C          -42.3621     6.1264    -0.1883 C             1 RES     
     124 S          -41.5184     7.5933    -0.1707 S             1 RES     
     125 C          -42.9757     8.4847    -0.2020 C             1 RES     
     126 C          -42.9789     9.9281    -0.3101 C             1 RES     
     127 O          -44.1592    10.4438    -0.8170 O             1 RES     
     128 C          -45.6906     9.9707    -1.0195 C             1 RES     
     129 C          -47.2090    11.2511    -1.2319 C             1 RES     
     130 C          -47.0434    12.2720    -2.2515 C             1 RES     
     131 C          -45.7673    13.0316    -2.1914 C             1 RES     
     132 C          -45.5629    14.0330    -3.2443 C             1 RES     
     133 C          -44.2082    14.7069    -3.0284 C             1 RES     
     134 C          -48.9144    10.7611    -1.1855 C             1 RES     
     135 C          -49.9044    11.8458    -0.8553 C             1 RES     
     136 O          -42.0143    10.6611    -0.1420 O             1 RES     
     137 C          -43.9936     7.5686    -0.1939 C             1 RES     
     138 F          -45.2136     7.8934    -0.2001 F             1 RES     
     139 C          -43.7002     6.2091    -0.1996 C             1 RES     
     140 C          -44.5521     5.0500    -0.2107 C             1 RES     
     141 C          -46.0118     4.7818    -0.2291 C             1 RES     
     142 C          -47.0962     3.8720    -0.2471 C             1 RES     
     143 C          -48.5645     4.5405    -0.2700 C             1 RES     
     144 C          -49.9784     4.2240    -0.3282 C             1 RES     
     145 O          -50.2761     2.9006    -0.5141 O             1 RES     
     146 C          -51.6314     2.5185    -0.3509 C             1 RES     
     147 C          -51.6960     1.0056    -0.2906 C             1 RES     
     148 C          -50.9876     0.4763     0.9712 C             1 RES     
     149 C          -49.5177     0.8379     1.0444 C             1 RES     
     150 C          -53.1665     0.5806    -0.3188 C             1 RES     
     151 C          -53.2866    -0.9339    -0.3343 C             1 RES     
     152 C          -54.7377    -1.3665    -0.3514 C             1 RES     
     153 C          -54.8134    -2.8799    -0.3447 C             1 RES     
     154 C          -50.9980     5.2795    -0.3046 C             1 RES     
     155 S          -52.7389     5.2925    -0.3215 S             1 RES     
     156 C          -52.9105     6.9827    -0.3134 C             1 RES     
     157 C          -54.1758     7.6239    -0.3272 C             1 RES     
     158 C          -54.4236     8.9716    -0.3271 C             1 RES     
     159 S          -53.4949    10.3864    -0.3051 S             1 RES     
     160 C          -54.8968    11.3635    -0.3402 C             1 RES     
     161 C          -54.8171    12.8032    -0.4508 C             1 RES     
     162 O          -55.9579    13.3896    -0.9711 O             1 RES     
     163 C          -57.5139    13.0086    -1.1709 C             1 RES     
     164 C          -58.9535    14.3754    -1.3837 C             1 RES     
     165 C          -58.7243    15.3856    -2.4013 C             1 RES     
     166 C          -57.4052    16.0669    -2.3350 C             1 RES     
     167 C          -57.1383    17.0551    -3.3864 C             1 RES     
     168 C          -55.7468    17.6474    -3.1663 C             1 RES     
     169 C          -60.6839    13.9872    -1.3423 C             1 RES     
     170 C          -61.6091    15.1286    -1.0142 C             1 RES     
     171 O          -53.8075    13.4793    -0.2747 O             1 RES     
     172 C          -55.9676    10.5082    -0.3361 C             1 RES     
     173 F          -57.1653    10.9048    -0.3475 F             1 RES     
     174 C          -55.7544     9.1336    -0.3422 C             1 RES     
     175 C          -56.6736     8.0271    -0.3573 C             1 RES     
     176 C          -58.1467     7.8463    -0.3806 C             1 RES     
     177 C          -59.2831     7.0026    -0.4027 C             1 RES     
     178 C          -60.7089     7.7573    -0.4295 C             1 RES     
     179 C          -62.1388     7.5255    -0.4922 C             1 RES     
     180 O          -62.5143     6.2223    -0.6802 O             1 RES     
     181 C          -63.8904     5.9213    -0.5215 C             1 RES     
     182 C          -64.0451     4.4149    -0.4628 C             1 RES     
     183 C          -63.3734     3.8433     0.8006 C             1 RES     
     184 C          -61.8848     4.1167     0.8785 C             1 RES     
     185 C          -65.5382     4.0781    -0.4959 C             1 RES     
     186 C          -65.7482     2.5735    -0.5131 C             1 RES     
     187 C          -67.2224     2.2280    -0.5350 C             1 RES     
     188 C          -67.3881     0.7218    -0.5300 C             1 RES     
     189 C          -63.0938     8.6397    -0.4708 C             1 RES     
     190 S          -64.8307     8.7560    -0.4929 S             1 RES     
     191 C          -64.9015    10.4531    -0.4835 C             1 RES     
     192 C          -66.1266    11.1677    -0.5006 C             1 RES     
     193 C          -66.2932    12.5275    -0.5020 C             1 RES     
     194 S          -65.2799    13.8824    -0.4785 S             1 RES     
     195 C          -66.6215    14.9376    -0.5171 C             1 RES     
     196 C          -66.4384    16.3785    -0.6140 C             1 RES     
     197 O          -67.5647    17.0263    -1.1058 O             1 RES     
     198 C          -69.1386    16.7386    -1.3365 C             1 RES     
     199 C          -70.4907    18.1938    -1.5620 C             1 RES     
     200 C          -70.1985    19.1886    -2.5798 C             1 RES     
     201 C          -68.8421    19.7936    -2.5138 C             1 RES     
     202 C          -68.5137    20.7645    -3.5639 C             1 RES     
     203 C          -67.0892    21.2716    -3.3380 C             1 RES     
     204 C          -72.2447    17.9117    -1.5271 C             1 RES     
     205 C          -73.0994    19.1060    -1.2008 C             1 RES     
     206 O          -65.4127    16.9829    -0.4498 O             1 RES     
     207 C          -67.7382    14.1530    -0.5158 C             1 RES     
     208 F          -68.9140    14.6215    -0.5247 F             1 RES     
     209 C          -67.6120    12.7688    -0.5216 C             1 RES     
     210 C          -68.5955    11.7194    -0.5386 C             1 RES     
     211 C          -70.0767    11.6263    -0.5658 C             1 RES     
     212 C          -71.2615    10.8521    -0.5915 C             1 RES     
     213 C          -72.6399    11.6904    -0.6220 C             1 RES     
     214 C          -74.0810    11.5443    -0.6891 C             1 RES     
     215 O          -74.5328    10.2659    -0.8788 O             1 RES     
     216 C          -75.9248    10.0477    -0.7242 C             1 RES     
     217 C          -76.1690     8.5532    -0.6663 C             1 RES     
     218 C          -75.5364     7.9427     0.5990 C             1 RES     
     219 C          -74.0344     8.1270     0.6815 C             1 RES     
     220 C          -77.6794     8.3060    -0.7040 C             1 RES     
     221 C          -77.9785     6.8166    -0.7222 C             1 RES     
     222 C          -79.4706     6.5595    -0.7487 C             1 RES     
     223 C          -79.7257     5.0658    -0.7445 C             1 RES     
     224 C          -74.9683    12.7133    -0.6700 C             1 RES     
     225 S          -76.6950    12.9333    -0.6974 S             1 RES     
     226 C          -76.6645    14.6318    -0.6880 C             1 RES     
     227 C          -77.8446    15.4184    -0.7089 C             1 RES     
     228 C          -77.9301    16.7857    -0.7088 C             1 RES     
     229 S          -76.8386    18.0784    -0.6791 S             1 RES     
     230 C          -78.1140    19.2135    -0.7214 C             1 RES     
     231 C          -77.8532    20.6371    -0.8201 C             1 RES     
     232 O          -78.9268    21.3537    -1.3245 O             1 RES     
     233 C          -80.5153    21.1607    -1.5528 C             1 RES     
     234 C          -81.7785    22.6928    -1.7790 C             1 RES     
     235 C          -81.4239    23.6694    -2.7942 C             1 RES     
     236 C          -80.0340    24.1913    -2.7212 C             1 RES     
     237 C          -79.6444    25.1420    -3.7689 C             1 RES     
     238 C          -78.1934    25.5635    -3.5376 C             1 RES     
     239 C          -83.5455    22.5147    -1.7509 C             1 RES     
     240 C          -84.3294    23.7574    -1.4265 C             1 RES     
     241 O          -76.7832    21.1836    -0.6462 O             1 RES     
     242 C          -79.2775    18.4948    -0.7256 C             1 RES     
     243 F          -80.4215    19.0319    -0.7402 F             1 RES     
     244 C          -79.2320    17.1052    -0.7328 C             1 RES     
     245 C          -80.2762    16.1161    -0.7552 C             1 RES     
     246 C          -81.7602    16.1115    -0.7882 C             1 RES     
     247 C          -82.9889    15.4092    -0.8194 C             1 RES     
     248 C          -84.3147    16.3281    -0.8540 C             1 RES     
     249 C          -85.7617    16.2682    -0.9266 C             1 RES     
     250 O          -86.2880    15.0191    -1.1197 O             1 RES     
     251 C          -87.6912    14.8839    -0.9705 C             1 RES     
     252 C          -88.0242    13.4066    -0.9156 C             1 RES     
     253 C          -87.4339    12.7580     0.3512 C             1 RES     
     254 C          -85.9239    12.8524     0.4396 C             1 RES     
     255 C          -89.5465    13.2498    -0.9592 C             1 RES     
     256 C          -89.9338    11.7808    -0.9806 C             1 RES     
     257 C          -91.4384    11.6131    -1.0129 C             1 RES     
     258 C          -91.7820    10.1372    -1.0117 C             1 RES     
     259 C          -86.5778    17.4880    -0.9094 C             1 RES     
     260 S          -88.2883    17.8103    -0.9428 S             1 RES     
     261 C          -88.1567    19.5041    -0.9310 C             1 RES     
     262 C          -89.2877    20.3598    -0.9551 C             1 RES     
     263 C          -89.2917    21.7299    -0.9528 C             1 RES     
     264 S          -88.1259    22.9560    -0.9165 S             1 RES     
     265 C          -89.3310    24.1662    -0.9619 C             1 RES     
     266 C          -88.9912    25.5699    -1.0617 C             1 RES     
     267 O          -90.0102    26.3507    -1.5795 O             1 RES     
     268 C          -91.6070    26.2530    -1.8056 C             1 RES     
     269 C          -92.7770    27.8565    -2.0312 C             1 RES     
     270 C          -92.3609    28.8117    -3.0431 C             1 RES     
     271 C          -90.9426    29.2486    -2.9626 C             1 RES     
     272 C          -90.4931    30.1756    -4.0074 C             1 RES     
     273 C          -89.0206    30.5101    -3.7704 C             1 RES     
     274 C          -94.5505    27.7831    -2.0097 C             1 RES     
     275 C          -95.2609    29.0700    -1.6865 C             1 RES     
     276 O          -87.8839    26.0538    -0.8779 O             1 RES     
     277 C          -90.5363    23.5164    -0.9719 C             1 RES     
     278 F          -91.6450    24.1202    -0.9919 F             1 RES     
     279 C          -90.5722    22.1262    -0.9811 C             1 RES     
     280 C          -91.6734    21.2011    -1.0094 C             1 RES     
     281 C          -93.1548    21.2851    -1.0482 C             1 RES     
     282 C          -94.4230    20.6572    -1.0852 C             1 RES     
     283 C          -95.6916    21.6535    -1.1236 C             1 RES     
     284 C          -97.1392    21.6800    -1.2018 C             1 RES     
     285 O          -97.7383    20.4647    -1.3987 O             1 RES     
     286 C          -99.1476    20.4132    -1.2551 C             1 RES     
     287 C          -99.5684    18.9582    -1.2038 C             1 RES     
     288 C          -99.0227    18.2739     0.0642 C             1 RES     
     289 C          -97.5101    18.2779     0.1585 C             1 RES     
     290 C         -101.0971    18.8925    -1.2535 C             1 RES     
     291 C         -101.5712    17.4493    -1.2786 C             1 RES     
     292 C         -103.0830    17.3716    -1.3169 C             1 RES     
     293 C         -103.5140    15.9188    -1.3193 C             1 RES     
     294 C          -97.8811    22.9463    -1.1858 C             1 RES     
     295 S          -99.5693    23.3701    -1.2252 S             1 RES     
     296 C          -99.3371    25.0530    -1.2102 C             1 RES     
     297 C         -100.4149    25.9749    -1.2372 C             1 RES     
     298 C         -100.3373    27.3429    -1.2320 C             1 RES     
     299 S          -99.1012    28.4982    -1.1884 S             1 RES     
     300 C         -100.2319    29.7789    -1.2366 C             1 RES     
     301 C          -99.8126    31.1593    -1.3368 C             1 RES     
     302 O         -100.7750    32.0001    -1.8684 O             1 RES     
     303 C         -102.3738    31.9982    -2.0924 C             1 RES     
     304 C         -103.4464    33.6672    -2.3163 C             1 RES     
     305 C         -102.9701    34.5977    -3.3243 C             1 RES     
     306 C         -101.5286    34.9479    -3.2357 C             1 RES     
     307 C         -101.0204    35.8480    -4.2772 C             1 RES     
     308 C          -99.5318    36.0942    -4.0343 C             1 RES     
     309 C         -105.2200    33.6988    -2.3011 C             1 RES     
     310 C         -105.8543    35.0255    -1.9785 C             1 RES     
     311 O          -98.6747    31.5771    -1.1430 O             1 RES     
     312 C         -101.4743    29.2009    -1.2525 C             1 RES     
     313 F         -102.5442    29.8693    -1.2778 F             1 RES     
     314 C         -101.5918    27.8149    -1.2644 C             1 RES     
     315 C         -102.7460    26.9569    -1.2991 C             1 RES     
     316 C         -104.2197    27.1293    -1.3437 C             1 RES     
     317 C         -105.5228    26.5781    -1.3867 C             1 RES     
     318 C         -106.7295    27.6486    -1.4284 C             1 RES     
     319 C         -108.1726    27.7614    -1.5122 C             1 RES     
     320 O         -108.8424    26.5844    -1.7136 O             1 RES     
     321 C         -110.2529    26.6167    -1.5757 C             1 RES     
     322 C         -110.7600    25.1894    -1.5287 C             1 RES     
     323 C         -110.2612    24.4716    -0.2598 C             1 RES     
     324 C         -108.7515    24.3853    -0.1596 C             1 RES     
     325 C         -112.2897    25.2151    -1.5844 C             1 RES     
     326 C         -112.8489    23.8028    -1.6140 C             1 RES     
     327 C         -114.3626    23.8155    -1.6584 C             1 RES     
     328 C         -114.8795    22.3911    -1.6651 C             1 RES     
     329 C         -108.8376    29.0698    -1.4969 C             1 RES     
     330 S         -110.4974    29.5936    -1.5421 S             1 RES     
     331 C         -110.1652    31.2597    -1.5232 C             1 RES     
     332 C         -111.1858    32.2447    -1.5526 C             1 RES     
     333 C         -111.0270    33.6058    -1.5439 C             1 RES     
     334 S         -109.7247    34.6861    -1.4924 S             1 RES     
     335 C         -110.7772    36.0327    -1.5429 C             1 RES     
     336 C         -110.2785    37.3858    -1.6429 C             1 RES     
     337 O         -111.1818    38.2826    -2.1884 O             1 RES     
     338 C         -112.7766    38.3766    -2.4104 C             1 RES     
     339 C         -113.7481    40.1050    -2.6315 C             1 RES     
     340 C         -113.2128    41.0075    -3.6349 C             1 RES     
     341 C         -111.7533    41.2698    -3.5378 C             1 RES     
     342 C         -111.1881    42.1398    -4.5756 C             1 RES     
     343 C         -109.6886    42.2967    -4.3268 C             1 RES     
     344 C         -115.5154    40.2416    -2.6224 C             1 RES     
     345 C         -116.0712    41.6035    -2.2997 C             1 RES     
     346 O         -109.1160    37.7350    -1.4389 O             1 RES     
     347 C         -112.0519    35.5286    -1.5650 C             1 RES     
     348 F         -113.0794    36.2596    -1.5952 F             1 RES     
     349 C         -112.2510    34.1517    -1.5801 C             1 RES     
     350 C         -113.4541    33.3640    -1.6216 C             1 RES     
     351 C         -114.9146    33.6244    -1.6720 C             1 RES     
     352 C         -116.2481    33.1520    -1.7213 C             1 RES     
     353 C         -117.3884    34.2927    -1.7659 C             1 RES     
     354 C         -118.8218    34.4918    -1.8553 C             1 RES     
     355 O         -119.5600    33.3572    -2.0617 O             1 RES     
     356 C         -120.9666    33.4735    -1.9294 C             1 RES     
     357 C         -121.5583    32.0789    -1.8874 C             1 RES     
     358 C         -121.1086    31.3303    -0.6180 C             1 RES     
     359 C         -119.6072    31.1536    -0.5119 C             1 RES     
     360 C         -123.0835    32.1961    -1.9493 C             1 RES     
     361 C         -123.7261    30.8198    -1.9840 C             1 RES     
     362 C         -125.2361    30.9231    -2.0345 C             1 RES     
     363 C         -125.8372    29.5321    -2.0462 C             1 RES     
     364 C         -119.4074    35.8376    -1.8400 C             1 RES     
     365 S         -121.0328    36.4598    -1.8909 S             1 RES     
     366 C         -120.6017    38.1031    -1.8671 C             1 RES     
     367 C         -121.5613    39.1477    -1.8985 C             1 RES     
     368 C         -121.3216    40.4971    -1.8856 C             1 RES     
     369 S         -119.9579    41.4985    -1.8257 S             1 RES     
     370 C         -120.9282    42.9063    -1.8780 C             1 RES     
     371 C         -120.3509    44.2278    -1.9770 C             1 RES     
     372 O         -121.1924    45.1766    -2.5366 O             1 RES     
     373 C         -122.7773    45.3664    -2.7565 C             1 RES     
     374 C         -123.6442    47.1479    -2.9737 C             1 RES     
     375 C         -123.0514    48.0193    -3.9718 C             1 RES     
     376 C         -121.5794    48.1926    -3.8661 C             1 RES     
     377 C         -120.9588    49.0293    -4.8996 C             1 RES     
     378 C         -119.4539    49.0962    -4.6447 C             1 RES     
     379 C         -125.3988    47.3891    -2.9705 C             1 RES     
     380 C         -125.8741    48.7814    -2.6470 C             1 RES     
     381 O         -119.1693    44.5064    -1.7626 O             1 RES     
     382 C         -122.2306    42.4781    -1.9064 C             1 RES     
     383 F         -123.2120    43.2693    -1.9413 F             1 RES     
     384 C         -122.5107    41.1152    -1.9254 C             1 RES     
     385 C         -123.7584    40.4006    -1.9742 C             1 RES     
     386 C         -125.2005    40.7481    -2.0303 C             1 RES     
     387 C         -126.5597    40.3564    -2.0862 C             1 RES     
     388 C         -127.6294    41.5634    -2.1331 C             1 RES     
     389 C         -129.0479    41.8481    -2.2280 C             1 RES     
     390 O         -129.8518    40.7601    -2.4400 O             1 RES     
     391 C         -131.2495    40.9602    -2.3134 C             1 RES     
     392 C         -131.9239    39.6034    -2.2771 C             1 RES     
     393 C         -131.5253    38.8266    -1.0076 C             1 RES     
     394 C         -130.0377    38.5601    -0.8956 C             1 RES     
     395 C         -133.4391    39.8119    -2.3450 C             1 RES     
     396 C         -134.1628    38.4767    -2.3857 C             1 RES     
     397 C         -135.6636    38.6704    -2.4422 C             1 RES     
     398 C         -136.3469    37.3179    -2.4596 C             1 RES     
     399 C         -129.5519    43.2266    -2.2122 C             1 RES     
     400 S         -131.1369    43.9452    -2.2683 S             1 RES     
     401 C         -130.6082    45.5598    -2.2390 C             1 RES     
     402 C         -131.5032    46.6604    -2.2718 C             1 RES     
     403 C         -131.1834    47.9932    -2.2539 C             1 RES     
     404 S         -129.7628    48.9122    -2.1850 S             1 RES     
     405 C         -130.6475    50.3762    -2.2386 C             1 RES     
     406 C         -129.9929    51.6617    -2.3361 C             1 RES     
     407 O         -130.7699    52.6585    -2.9094 O             1 RES     
     408 C         -132.3388    52.9436    -3.1272 C             1 RES     
     409 C         -133.0981    54.7719    -3.3393 C             1 RES     
     410 C         -132.4495    55.6089    -4.3317 C             1 RES     
     411 C         -130.9705    55.6924    -4.2169 C             1 RES     
     412 C         -130.2964    56.4927    -5.2459 C             1 RES     
     413 C         -128.7914    56.4694    -4.9848 C             1 RES     
     414 C         -134.8337    55.1168    -3.3420 C             1 RES     
     415 C         -135.2267    56.5348    -3.0170 C             1 RES     
     416 O         -128.7975    51.8684    -2.1110 O             1 RES     
     417 C         -131.9729    50.0256    -2.2735 C             1 RES     
     418 F         -132.9046    50.8742    -2.3129 F             1 RES     
     419 C         -132.3333    48.6814    -2.2971 C             1 RES     
     420 C         -133.6212    48.0427    -2.3536 C             1 RES     
     421 C         -135.0396    48.4761    -2.4152 C             1 RES     
     422 C         -136.4195    48.1667    -2.4781 C             1 RES     
     423 C         -137.4146    49.4359    -2.5267 C             1 RES     
     424 C         -138.8130    49.8054    -2.6269 C             1 RES     
     425 O         -139.6798    48.7681    -2.8452 O             1 RES     
     426 C         -141.0636    49.0513    -2.7242 C             1 RES     
     427 C         -141.8184    47.7374    -2.6943 C             1 RES     
     428 C         -141.4729    46.9351    -1.4251 C             1 RES     
     429 C         -140.0044    46.5795    -1.3074 C             1 RES     
     430 C         -143.3180    48.0367    -2.7683 C             1 RES     
     431 C         -144.1204    46.7474    -2.8155 C             1 RES     
     432 C         -145.6066    47.0310    -2.8780 C             1 RES     
     433 C         -146.3698    45.7220    -2.9019 C             1 RES     
     434 C         -139.2333    51.2117    -2.6098 C             1 RES     
     435 S         -140.7722    52.0244    -2.6710 S             1 RES     
     436 C         -140.1476    53.6044    -2.6352 C             1 RES     
     437 C         -140.9745    54.7570    -2.6689 C             1 RES     
     438 C         -140.5756    56.0685    -2.6453 C             1 RES     
     439 S         -139.1032    56.9017    -2.5668 S             1 RES     
     440 C         -139.8988    58.4168    -2.6211 C             1 RES     
     441 C         -139.1686    59.6617    -2.7163 C             1 RES     
     442 O         -139.8784    60.7026    -3.3032 O             1 RES     
     443 C         -141.4254    61.0821    -3.5186 C             1 RES     
     444 C         -142.0745    62.9508    -3.7245 C             1 RES     
     445 C         -141.3719    63.7503    -4.7106 C             1 RES     
     446 C         -139.8913    63.7436    -4.5867 C             1 RES     
     447 C         -139.1657    64.5045    -5.6105 C             1 RES     
     448 C         -137.6662    64.3907    -5.3433 C             1 RES     
     449 C         -143.7848    63.3983    -3.7329 C             1 RES     
     450 C         -144.0939    64.8368    -3.4057 C             1 RES     
     451 O         -137.9644    59.7958    -2.4804 O             1 RES     
     452 C         -141.2424    58.1451    -2.6626 C             1 RES     
     453 F         -142.1210    59.0483    -2.7061 F             1 RES     
     454 C         -141.6820    56.8245    -2.6916 C             1 RES     
     455 C         -143.0055    56.2640    -2.7561 C             1 RES     
     456 C         -144.3950    56.7822    -2.8232 C             1 RES     
     457 C         -145.7907    56.5563    -2.8932 C             1 RES     
     458 C         -146.7073    57.8832    -2.9428 C             1 RES     
     459 C         -148.0805    58.3364    -3.0484 C             1 RES     
     460 O         -149.0072    57.3537    -3.2735 O             1 RES     
     461 C         -150.3720    57.7193    -3.1579 C             1 RES     
     462 C         -151.2047    56.4532    -3.1353 C             1 RES     
     463 C         -150.9141    55.6283    -1.8668 C             1 RES     
     464 C         -149.4702    55.1846    -1.7435 C             1 RES     
     465 C         -152.6832    56.8424    -3.2152 C             1 RES     
     466 C         -153.5615    55.6038    -3.2698 C             1 RES     
     467 C         -155.0277    55.9765    -3.3382 C             1 RES     
     468 C         -155.8681    54.7160    -3.3693 C             1 RES     
     469 C         -148.4152    59.7653    -3.0292 C             1 RES     
     470 S         -149.9019    60.6691    -3.0951 S             1 RES     
     471 C         -149.1831    62.2083    -3.0518 C             1 RES     
     472 C         -149.9379    63.4089    -3.0858 C             1 RES     
     473 C         -149.4606    64.6942    -3.0557 C             1 RES     
     474 S         -147.9419    65.4391    -2.9670 S             1 RES     
     475 C         -148.6455    66.9998    -3.0215 C             1 RES     
     476 C         -147.8429    68.2003    -3.1139 C             1 RES     
     477 O         -148.4835    69.2812    -3.7135 O             1 RES     
     478 C         -150.0033    69.7544    -3.9267 C             1 RES     
     479 C         -150.5402    71.6571    -4.1249 C             1 RES     
     480 C         -149.7853    72.4157    -5.1042 C             1 RES     
     481 C         -148.3085    72.3182    -4.9710 C             1 RES     
     482 C         -147.5333    73.0367    -5.9893 C             1 RES     
     483 C         -146.0447    72.8327    -5.7159 C             1 RES     
     484 C         -152.2227    72.2056    -4.1386 C             1 RES     
     485 C         -152.4535    73.6601    -3.8084 C             1 RES     
     486 O         -146.6350    68.2620    -2.8667 O             1 RES     
     487 C         -150.0020    66.8079    -3.0697 C             1 RES     
     488 F         -150.8227    67.7638    -3.1169 F             1 RES     
     489 C         -150.5192    65.5151    -3.1046 C             1 RES     
     490 C         -151.8720    65.0328    -3.1777 C             1 RES     
     491 C         -153.2251    65.6311    -3.2501 C             1 RES     
     492 C         -154.6300    65.4864    -3.3276 C             1 RES     
     493 C         -155.4627    66.8575    -3.3779 C             1 RES     
     494 C         -156.8072    67.3854    -3.4890 C             1 RES     
     495 O         -157.7936    66.4642    -3.7246 O             1 RES     
     496 C         -159.1346    66.9181    -3.6126 C             1 RES     
     497 C         -160.0485    65.7121    -3.5967 C             1 RES     
     498 C         -159.8145    64.8718    -2.3276 C             1 RES     
     499 C         -158.4001    64.3428    -2.1979 C             1 RES     
     500 C         -161.4987    66.1970    -3.6816 C             1 RES     
     501 C         -162.4510    65.0153    -3.7443 C             1 RES     
     502 C         -163.8912    65.4766    -3.8185 C             1 RES     
     503 C         -164.8058    64.2690    -3.8577 C             1 RES     
     504 C         -157.0578    68.8274    -3.4659 C             1 RES     
     505 S         -158.4844    69.8188    -3.5356 S             1 RES     
     506 C         -157.6935    71.3256    -3.4847 C             1 RES     
     507 C         -158.3004    72.6296    -3.5144 C             1 RES     
     508 C         -159.6355    72.9086    -3.5821 C             1 RES     
     509 S         -160.9215    71.8895    -3.6410 S             1 RES     
     510 C         -162.0578    73.1726    -3.7203 C             1 RES     
     511 C         -163.3998    72.5788    -3.8264 C             1 RES     
     512 O         -164.4595    73.3759    -4.0759 O             1 RES     
     513 C         -164.3691    74.7667    -3.8906 C             1 RES     
     514 C         -165.7445    75.4058    -3.9092 C             1 RES     
     515 C         -166.5858    74.9685    -2.7004 C             1 RES     
     516 C         -166.8461    73.4756    -2.6759 C             1 RES     
     517 C         -167.6913    73.0832    -1.4877 C             1 RES     
     518 C         -167.8819    71.5804    -1.5061 C             1 RES     
     519 C         -165.5341    76.9221    -3.9055 C             1 RES     
     520 C         -166.8520    77.6624    -3.9891 C             1 RES     
     521 O         -163.6244    71.3673    -3.7691 O             1 RES     
     522 C         -161.3658    74.4032    -3.6792 C             1 RES     
     523 F         -161.9105    75.5922    -3.7091 F             1 RES     
     524 C         -159.9306    74.2205    -3.5988 C             1 RES     
     525 C         -158.8573    75.0957    -3.5411 C             1 RES     
     526 S         -157.3436    74.1169    -3.4646 S             1 RES     
     527 C         -156.3566    71.1079    -3.4173 C             1 RES     
     528 C         -156.0143    69.7290    -3.3893 C             1 RES     
     529 C         -154.7623    69.2051    -3.2928 C             1 RES     
     530 O         -153.7789    70.1434    -3.1180 O             1 RES     
     531 C         -152.4737    69.6608    -2.7562 C             1 RES     
     532 C         -151.4131    70.7359    -2.1430 C             1 RES     
     533 C         -151.9221    71.7874    -1.2172 C             1 RES     
     534 C         -153.3720    72.2852    -1.1847 C             1 RES     
     535 C         -149.5314    70.9591    -2.0176 C             1 RES     
     536 C         -148.5600    72.1334    -2.0071 C             1 RES     
     537 C         -147.1309    71.5053    -2.3982 C             1 RES     
     538 C         -146.1857    72.6472    -2.4697 C             1 RES     
     539 C         -154.5403    67.8491    -3.3139 C             1 RES     
     540 S         -153.0662    67.2026    -3.3377 S             1 RES     
     541 S         -151.7140    63.3206    -3.1727 S             1 RES     
     542 C         -147.8343    62.0875    -2.9909 C             1 RES     
     543 C         -147.4213    60.7253    -2.9609 C             1 RES     
     544 C         -146.1424    60.2664    -2.8701 C             1 RES     
     545 O         -145.2102    61.2550    -2.7059 O             1 RES     
     546 C         -143.8789    60.8478    -2.3478 C             1 RES     
     547 C         -142.8824    61.9864    -1.7428 C             1 RES     
     548 C         -143.4495    63.0049    -0.8139 C             1 RES     
     549 C         -144.9262    63.4148    -0.7745 C             1 RES     
     550 C         -141.0150    62.3243    -1.6289 C             1 RES     
     551 C         -140.1163    63.5540    -1.6242 C             1 RES     
     552 C         -138.6541    63.0106    -2.0192 C             1 RES     
     553 C         -137.7801    64.2072    -2.0974 C             1 RES     
     554 C         -145.8430    58.9248    -2.8871 C             1 RES     
     555 S         -144.3342    58.3604    -2.9146 S             1 RES     
     556 S         -142.7435    54.5632    -2.7468 S             1 RES     
     557 C         -138.7935    53.5649    -2.5805 C             1 RES     
     558 C         -138.2988    52.2300    -2.5491 C             1 RES     
     559 C         -136.9942    51.8489    -2.4641 C             1 RES     
     560 O         -136.1226    52.8925    -2.3096 O             1 RES     
     561 C         -134.7678    52.5675    -1.9565 C             1 RES     
     562 C         -133.8391    53.7669    -1.3590 C             1 RES     
     563 C         -134.4620    54.7492    -0.4266 C             1 RES     
     564 C         -135.9605    55.0699    -0.3805 C             1 RES     
     565 C         -131.9926    54.2183    -1.2558 C             1 RES     
     566 C         -131.1692    55.4986    -1.2561 C             1 RES     
     567 C         -129.6789    55.0417    -1.6552 C             1 RES     
     568 C         -128.8791    56.2883    -1.7393 C             1 RES     
     569 C         -136.6143    50.5278    -2.4778 C             1 RES     
     570 S         -135.0744    50.0550    -2.5070 S             1 RES     
     571 S         -133.2575    46.3607    -2.3409 S             1 RES     
     572 C         -129.2539    45.6020    -2.1904 C             1 RES     
     573 C         -128.6800    44.2992    -2.1584 C             1 RES     
     574 C         -127.3546    43.9973    -2.0793 C             1 RES     
     575 O         -126.5468    45.0920    -1.9339 O             1 RES     
     576 C         -125.1738    44.8500    -1.5858 C             1 RES     
     577 C         -124.3165    46.1059    -0.9951 C             1 RES     
     578 C         -124.9927    47.0485    -0.0590 C             1 RES     
     579 C         -126.5075    47.2791    -0.0060 C             1 RES     
     580 C         -122.4977    46.6689    -0.9022 C             1 RES     
     581 C         -121.7523    47.9950    -0.9070 C             1 RES     
     582 C         -120.2392    47.6262    -1.3104 C             1 RES     
     583 C         -119.5162    48.9182    -1.3998 C             1 RES     
     584 C         -126.8959    42.7015    -2.0904 C             1 RES     
     585 S         -125.3304    42.3217    -2.1216 S             1 RES     
     586 S         -123.2947    38.7435    -1.9590 S             1 RES     
     587 C         -119.2522    38.2266    -1.8246 C             1 RES     
     588 C         -118.6012    36.9606    -1.7926 C             1 RES     
     589 C         -117.2599    36.7387    -1.7195 C             1 RES     
     590 O         -116.5188    37.8804    -1.5825 O             1 RES     
     591 C         -115.1327    37.7221    -1.2395 C             1 RES     
     592 C         -114.3500    39.0295    -0.6549 C             1 RES     
     593 C         -115.0769    39.9295     0.2853 C             1 RES     
     594 C         -116.6026    40.0692     0.3452 C             1 RES     
     595 C         -112.5659    39.7021    -0.5719 C             1 RES     
     596 C         -111.9007    41.0693    -0.5806 C             1 RES     
     597 C         -110.3699    40.7896    -0.9886 C             1 RES     
     598 C         -109.7261    42.1224    -1.0825 C             1 RES     
     599 C         -116.7242    35.4727    -1.7288 C             1 RES     
     600 S         -115.1389    35.1873    -1.7623 S             1 RES     
     601 S         -112.8920    31.7376    -1.6048 S             1 RES     
     602 C         -108.8254    31.4638    -1.4866 C             1 RES     
     603 C         -108.0998    30.2390    -1.4552 C             1 RES     
     604 C         -106.7475    30.0978    -1.3882 C             1 RES     
     605 O         -106.0756    31.2822    -1.2587 O             1 RES     
     606 C         -104.6815    31.2079    -0.9209 C             1 RES     
     607 C         -103.9765    32.5621    -0.3416 C             1 RES     
     608 C         -104.7513    33.4165     0.6029 C             1 RES     
     609 C         -106.2825    33.4651     0.6695 C             1 RES     
     610 C         -102.2337    33.3417    -0.2681 C             1 RES     
     611 C         -101.6508    34.7453    -0.2803 C             1 RES     
     612 C         -100.1077    34.5555    -0.6930 C             1 RES     
     613 C          -99.5452    35.9241    -0.7908 C             1 RES     
     614 C         -106.1369    28.8661    -1.3962 C             1 RES     
     615 S         -104.5374    28.6759    -1.4323 S             1 RES     
     616 S         -102.0879    25.3670    -1.2814 S             1 RES     
     617 C          -98.0117    25.3369    -1.1794 C             1 RES     
     618 C          -97.2143    24.1575    -1.1493 C             1 RES     
     619 C          -95.8558    24.0972    -1.0882 C             1 RES     
     620 O          -95.2556    25.3199    -0.9656 O             1 RES     
     621 C          -93.8585    25.3297    -0.6328 C             1 RES     
     622 C          -93.2339    26.7257    -0.0580 C             1 RES     
     623 C          -94.0538    27.5319     0.8909 C             1 RES     
     624 C          -95.5849    27.4893     0.9640 C             1 RES     
     625 C          -91.5387    27.6094     0.0065 C             1 RES     
     626 C          -91.0401    29.0445    -0.0089 C             1 RES     
     627 C          -89.4899    28.9453    -0.4265 C             1 RES     
     628 C          -89.0106    30.3448    -0.5277 C             1 RES     
     629 C          -95.1726    22.9043    -1.0957 C             1 RES     
     630 S          -93.5647    22.8098    -1.1345 S             1 RES     
     631 S          -90.9216    19.6533    -0.9917 S             1 RES     
     632 C          -86.8505    19.8665    -0.9059 C             1 RES     
     633 C          -85.9843    18.7368    -0.8775 C             1 RES     
     634 C          -84.6244    18.7575    -0.8224 C             1 RES     
     635 O          -84.0979    20.0141    -0.7058 O             1 RES     
     636 C          -82.7030    20.1076    -0.3780 C             1 RES     
     637 C          -82.1611    21.5404     0.1933 C             1 RES     
     638 C          -83.0231    22.2959     1.1465 C             1 RES     
     639 C          -84.5486    22.1622     1.2260 C             1 RES     
     640 C          -80.5199    22.5248     0.2493 C             1 RES     
     641 C          -80.1073    23.9867     0.2310 C             1 RES     
     642 C          -78.5551    23.9784    -0.1918 C             1 RES     
     643 C          -78.1606    25.4037    -0.2957 C             1 RES     
     644 C          -83.8712    17.6076    -0.8299 C             1 RES     
     645 S          -82.2605    17.6089    -0.8717 S             1 RES     
     646 S          -79.4336    14.6160    -0.7382 S             1 RES     
     647 C          -75.3822    15.0715    -0.6683 C             1 RES     
     648 C          -74.4502    13.9953    -0.6421 C             1 RES     
     649 C          -73.0938    14.0969    -0.5929 C             1 RES     
     650 O          -72.6428    15.3828    -0.4816 O             1 RES     
     651 C          -71.2550    15.5596    -0.1585 C             1 RES     
     652 C          -70.7978    17.0239     0.4103 C             1 RES     
     653 C          -71.6991    17.7265     1.3677 C             1 RES     
     654 C          -73.2136    17.5022     1.4530 C             1 RES     
     655 C          -69.2170    18.1054     0.4583 C             1 RES     
     656 C          -68.8917    19.5889     0.4371 C             1 RES     
     657 C          -67.3429    19.6717     0.0089 C             1 RES     
     658 C          -67.0343    21.1177    -0.0971 C             1 RES     
     659 C          -72.2733    12.9940    -0.6011 C             1 RES     
     660 S          -70.6656    13.0912    -0.6461 S             1 RES     
     661 S          -67.6650    10.2722    -0.5229 S             1 RES     
     662 C          -63.6476    10.9687    -0.4674 C             1 RES     
     663 C          -62.6528     9.9504    -0.4434 C             1 RES     
     664 C          -61.3046    10.1332    -0.3960 C             1 RES     
     665 O          -60.9300    11.4436    -0.2799 O             1 RES     
     666 C          -59.5533    11.7028     0.0374 C             1 RES     
     667 C          -59.1803    13.1889     0.6022 C             1 RES     
     668 C          -60.1221    13.8421     1.5555 C             1 RES     
     669 C          -61.6203    13.5280     1.6445 C             1 RES     
     670 C          -57.6703    14.3585     0.6476 C             1 RES     
     671 C          -57.4360    15.8601     0.6226 C             1 RES     
     672 C          -55.8975    16.0377     0.1877 C             1 RES     
     673 C          -55.6759    17.4998     0.0775 C             1 RES     
     674 C          -60.4205     9.0806    -0.4097 C             1 RES     
     675 S          -58.8220     9.2734    -0.4696 S             1 RES     
     676 S          -55.6583     6.6378    -0.3449 S             1 RES     
     677 C          -51.6893     7.5716    -0.3015 C             1 RES     
     678 C          -50.6357     6.6140    -0.2799 C             1 RES     
     679 C          -49.3006     6.8765    -0.2375 C             1 RES     
     680 O          -49.0046     8.2070    -0.1255 O             1 RES     
     681 C          -47.6450     8.5481     0.1877 C             1 RES     
     682 C          -47.3602    10.0551     0.7507 C             1 RES     
     683 C          -48.3351    10.6502     1.7087 C             1 RES     
     684 C          -49.8117    10.2477     1.8031 C             1 RES     
     685 C          -45.9211    11.3140     0.7898 C             1 RES     
     686 C          -45.7759    12.8263     0.7643 C             1 RES     
     687 C          -44.2517    13.0938     0.3253 C             1 RES     
     688 C          -44.1179    14.5664     0.2143 C             1 RES     
     689 C          -48.3553     5.8786    -0.2521 C             1 RES     
     690 S          -46.7712     6.1661    -0.3138 S             1 RES     
     691 S          -43.4560     3.7236    -0.2002 S             1 RES     
     692 C          -39.5495     4.8920    -0.1698 C             1 RES     
     693 C          -38.4408     3.9987    -0.1511 C             1 RES     
     694 C          -37.1236     4.3400    -0.1136 C             1 RES     
     695 O          -36.9071     5.6858    -0.0053 O             1 RES     
     696 C          -35.5697     6.1074     0.3040 C             1 RES     
     697 C          -35.3741     7.6299     0.8660 C             1 RES     
     698 C          -36.3785     8.1652     1.8289 C             1 RES     
     699 C          -37.8282     7.6757     1.9284 C             1 RES     
     700 C          -34.0113     8.9738     0.8992 C             1 RES     
     701 C          -33.9557    10.4916     0.8733 C             1 RES     
     702 C          -32.4509    10.8482     0.4301 C             1 RES     
     703 C          -32.4052    12.3259     0.3189 C             1 RES     
     704 C          -36.1205     3.4002    -0.1295 C             1 RES     
     705 S          -34.5563     3.7814    -0.1930 S             1 RES     
     706 S          -31.1016     1.5407    -0.0916 S             1 RES     
     707 C          -27.2715     2.9390    -0.0752 C             1 RES     
     708 C          -26.1117     2.1132    -0.0599 C             1 RES     
     709 C          -24.8169     2.5327    -0.0273 C             1 RES     
     710 O          -24.6790     3.8900     0.0818 O             1 RES     
     711 C          -23.3686     4.3906     0.3950 C             1 RES     
     712 C          -23.2520     5.9211     1.0037 C             1 RES     
     713 C          -24.3025     6.4062     1.9372 C             1 RES     
     714 C          -25.7151     5.8221     2.0205 C             1 RES     
     715 C          -21.9916     7.3360     1.0250 C             1 RES     
     716 C          -22.0286     8.8664     0.9542 C             1 RES     
     717 C          -20.5422     9.3101     0.4931 C             1 RES     
     718 C          -20.5762    10.7900     0.3793 C             1 RES     
     719 C          -23.7603     1.6532    -0.0455 C             1 RES     
     720 S          -22.2227     2.1262    -0.1151 S             1 RES     
     721 S          -18.6372     0.0924    -0.0233 S             1 RES     
     722 C          -14.8978     1.7206    -0.0204 C             1 RES     
     723 C          -13.6910     0.9652    -0.0092 C             1 RES     
     724 C          -12.4233     1.4603     0.0180 C             1 RES     
     725 O          -12.3684     2.8223     0.1209 O             1 RES     
     726 C          -11.0889     3.3997     0.4225 C             1 RES     
     727 C          -11.0734     4.9368     0.9856 C             1 RES     
     728 C          -12.1261     5.3480     1.9580 C             1 RES     
     729 C          -13.5066     4.6897     2.0670 C             1 RES     
     730 C           -9.8786     6.4353     1.0079 C             1 RES     
     731 C          -10.0029     7.9491     0.9812 C             1 RES     
     732 C           -8.5526     8.4800     0.5287 C             1 RES     
     733 C           -8.6832     9.9525     0.4184 C             1 RES     
     734 C          -11.3149     0.6469    -0.0024 C             1 RES     
     735 S           -9.8060     1.2103    -0.0699 S             1 RES     
     736 S           -6.0940    -0.6010     0.0029 S             1 RES     
     737 C           -2.4601     1.2955    -0.0082 C             1 RES     
     738 C           -1.1710     0.6820    -0.0105 C             1 RES     
     739 C            0.0629     1.3276    -0.0564 C             1 RES     
     740 O           -0.0240     2.7046    -0.2224 O             1 RES     
     741 C            1.1500     3.4854    -0.0657 C             1 RES     
     742 C            0.8835     4.9656    -0.0066 C             1 RES     
     743 C            0.0851     5.2981     1.2593 C             1 RES     
     744 C           -1.2466     4.5856     1.3169 C             1 RES     
     745 C            2.2402     5.6932    -0.0118 C             1 RES     
     746 C            2.0199     7.1938    -0.0253 C             1 RES     
     747 C            3.3311     7.9497    -0.0243 C             1 RES     
     748 C            3.0479     9.4386    -0.0182 C             1 RES     
     749 C            1.2556     0.6097    -0.0097 C             1 RES     
     750 S            2.8255     1.2991     0.0135 S             1 RES     
     751 H            4.6924     0.0112    -0.0035 H             1 RES     
     752 H            3.1336    -2.1926    -0.0089 H             1 RES     
     753 H           -1.8271    -3.4217    -0.9285 H             1 RES     
     754 H           -1.7210    -3.3475     0.8820 H             1 RES     
     755 H           -0.3484    -5.3895    -0.8869 H             1 RES     
     756 H            0.1076    -6.5486     1.2804 H             1 RES     
     757 H           -0.6849    -5.2442     2.1593 H             1 RES     
     758 H            1.8017    -4.9840     0.3953 H             1 RES     
     759 H            1.8136    -5.1160     2.1770 H             1 RES     
     760 H            1.1318    -3.7071     1.4445 H             1 RES     
     761 H           -2.8440    -5.6091    -0.8859 H             1 RES     
     762 H           -2.8561    -5.6169     0.8757 H             1 RES     
     763 H           -1.4602    -7.7055     0.8728 H             1 RES     
     764 H           -1.4170    -7.6637    -0.8907 H             1 RES     
     765 H           -3.9186    -7.8944    -0.8947 H             1 RES     
     766 H           -3.9108    -7.8927     0.8765 H             1 RES     
     767 H           -2.4678    -9.9377    -0.8886 H             1 RES     
     768 H           -3.9827   -10.2120    -0.0013 H             1 RES     
     769 H           -2.4699    -9.9323     0.8843 H             1 RES     
     770 H           -9.3114     4.6770     0.2819 H             1 RES     
     771 H           -9.2489     4.4401    -1.5699 H             1 RES     
     772 H          -11.4912     6.7242    -0.0811 H             1 RES     
     773 H          -12.1057     7.7229    -1.8246 H             1 RES     
     774 H          -11.1626     6.5104    -2.8549 H             1 RES     
     775 H           -9.0932     7.6572    -1.9520 H             1 RES     
     776 H          -10.2409     8.8316    -1.1695 H             1 RES     
     777 H          -10.9890     9.7161    -2.9067 H             1 RES     
     778 H           -9.9857     8.5715    -3.9276 H             1 RES     
     779 H           -8.9006    10.7906    -2.0030 H             1 RES     
     780 H           -8.7355    10.6963    -3.6929 H             1 RES     
     781 H           -7.9147     9.4913    -2.6255 H             1 RES     
     782 H          -12.9252     4.7089    -0.0742 H             1 RES     
     783 H          -12.8535     4.6010    -1.6891 H             1 RES     
     784 H          -13.8695     6.7286     0.4105 H             1 RES     
     785 H          -14.7955     5.6055    -0.6008 H             1 RES     
     786 H          -13.9110     6.9883    -1.3469 H             1 RES     
     787 H           -9.3781    -2.1248    -0.0111 H             1 RES     
     788 H          -14.5528    -3.0021    -0.9453 H             1 RES     
     789 H          -14.4330    -2.9306     0.8680 H             1 RES     
     790 H          -13.1744    -5.0395    -0.8983 H             1 RES     
     791 H          -12.7866    -6.2149     1.2735 H             1 RES     
     792 H          -13.5048    -4.8627     2.1474 H             1 RES     
     793 H          -11.0014    -4.7489     0.3908 H             1 RES     
     794 H          -11.0020    -4.8841     2.1723 H             1 RES     
     795 H          -11.5962    -3.4374     1.4431 H             1 RES     
     796 H          -15.6762    -5.1014    -0.9055 H             1 RES     
     797 H          -15.6946    -5.1087     0.8565 H             1 RES     
     798 H          -14.4214    -7.2734     0.8558 H             1 RES     
     799 H          -14.3705    -7.2332    -0.9078 H             1 RES     
     800 H          -16.8810    -7.3128    -0.9195 H             1 RES     
     801 H          -16.8786    -7.3125     0.8518 H             1 RES     
     802 H          -15.5537    -9.4382    -0.9103 H             1 RES     
     803 H          -17.0852    -9.6229    -0.0278 H             1 RES     
     804 H          -15.5609    -9.4335     0.8626 H             1 RES     
     805 H          -21.5463     5.5619     0.1566 H             1 RES     
     806 H          -21.4549     5.3121    -1.6661 H             1 RES     
     807 H          -23.5379     7.7009    -0.1681 H             1 RES     
     808 H          -24.1139     8.7627    -1.8720 H             1 RES     
     809 H          -23.2501     7.5193    -2.9369 H             1 RES     
     810 H          -21.1162     8.5142    -1.9810 H             1 RES     
     811 H          -22.1961     9.7564    -1.2101 H             1 RES     
     812 H          -22.8793    10.6903    -2.9496 H             1 RES     
     813 H          -21.9435     9.4907    -3.9694 H             1 RES     
     814 H          -20.7360    11.6396    -2.0399 H             1 RES     
     815 H          -20.5699    11.5348    -3.7289 H             1 RES     
     816 H          -19.8273    10.2823    -2.6574 H             1 RES     
     817 H          -25.1047     5.8095    -0.1256 H             1 RES     
     818 H          -25.0574     5.6769    -1.7405 H             1 RES     
     819 H          -25.9356     7.8726     0.3568 H             1 RES     
     820 H          -26.9224     6.8101    -0.6549 H             1 RES     
     821 H          -25.9615     8.1388    -1.3977 H             1 RES     
     822 H          -21.9902    -1.2286    -0.0463 H             1 RES     
     823 H          -27.2044    -1.7966    -0.9964 H             1 RES     
     824 H          -27.0861    -1.7311     0.8173 H             1 RES     
     825 H          -25.9496    -3.9123    -0.9440 H             1 RES     
     826 H          -25.6392    -5.1071     1.2297 H             1 RES     
     827 H          -26.2785    -3.7139     2.1006 H             1 RES     
     828 H          -23.7672    -3.7505     0.3518 H             1 RES     
     829 H          -23.7814    -3.8841     2.1334 H             1 RES     
     830 H          -24.2863    -2.4052     1.4016 H             1 RES     
     831 H          -28.4507    -3.8252    -0.9590 H             1 RES     
     832 H          -28.4749    -3.8301     0.8028 H             1 RES     
     833 H          -27.3327    -6.0668     0.8073 H             1 RES     
     834 H          -27.2741    -6.0309    -0.9561 H             1 RES     
     835 H          -29.7848    -5.9610    -0.9757 H             1 RES     
     836 H          -29.7879    -5.9596     0.7956 H             1 RES     
     837 H          -28.5862    -8.1616    -0.9612 H             1 RES     
     838 H          -30.1288    -8.2543    -0.0834 H             1 RES     
     839 H          -28.5987    -8.1553     0.8117 H             1 RES     
     840 H          -33.6469     7.1690     0.1643 H             1 RES     
     841 H          -33.6131     6.9200    -1.6828 H             1 RES     
     842 H          -35.5718     9.4553    -0.2053 H             1 RES     
     843 H          -36.0517    10.5202    -1.9535 H             1 RES     
     844 H          -35.2513     9.2034    -2.9767 H             1 RES     
     845 H          -33.0675    10.0938    -2.0569 H             1 RES     
     846 H          -34.0716    11.3959    -1.2804 H             1 RES     
     847 H          -34.6983    12.3642    -3.0231 H             1 RES     
     848 H          -33.8312    11.1094    -4.0384 H             1 RES     
     849 H          -32.5039    13.1836    -2.1048 H             1 RES     
     850 H          -32.3403    13.0709    -3.7939 H             1 RES     
     851 H          -31.6745    11.7772    -2.7227 H             1 RES     
     852 H          -37.2329     7.6246    -0.2099 H             1 RES     
     853 H          -37.1631     7.5063    -1.8242 H             1 RES     
     854 H          -37.9346     9.7408     0.2689 H             1 RES     
     855 H          -38.9814     8.7350    -0.7480 H             1 RES     
     856 H          -37.9351    10.0041    -1.4879 H             1 RES     
     857 H          -34.5257     0.4183    -0.1284 H             1 RES     
     858 H          -39.7609     0.1616    -1.0978 H             1 RES     
     859 H          -39.6454     0.2176     0.7163 H             1 RES     
     860 H          -38.6345    -2.0253    -1.0441 H             1 RES     
     861 H          -38.4034    -3.2391     1.1288 H             1 RES     
     862 H          -38.9618    -1.8116     1.9995 H             1 RES     
     863 H          -36.4509    -1.9952     0.2594 H             1 RES     
     864 H          -36.4794    -2.1300     2.0407 H             1 RES     
     865 H          -36.8928    -0.6228     1.3094 H             1 RES     
     866 H          -41.1259    -1.7896    -1.0678 H             1 RES     
     867 H          -41.1566    -1.7953     0.6940 H             1 RES     
     868 H          -40.1495    -4.0959     0.6992 H             1 RES     
     869 H          -40.0826    -4.0613    -1.0640 H             1 RES     
     870 H          -42.5846    -3.8423    -1.0922 H             1 RES     
     871 H          -42.5940    -3.8428     0.6791 H             1 RES     
     872 H          -41.5191    -6.1102    -1.0768 H             1 RES     
     873 H          -43.0676    -6.1121    -0.2045 H             1 RES     
     874 H          -41.5375    -6.1054     0.6961 H             1 RES     
     875 H          -45.6601     9.4955     0.0459 H             1 RES     
     876 H          -45.6412     9.2427    -1.7982 H             1 RES     
     877 H          -47.4464    11.8895    -0.3240 H             1 RES     
     878 H          -47.8572    12.9826    -2.0728 H             1 RES     
     879 H          -47.1330    11.6209    -3.0942 H             1 RES     
     880 H          -44.9036    12.3776    -2.1652 H             1 RES     
     881 H          -45.8303    13.7366    -1.3907 H             1 RES     
     882 H          -46.3931    14.7421    -3.1354 H             1 RES     
     883 H          -45.5990    13.4387    -4.1489 H             1 RES     
     884 H          -44.1570    15.4293    -2.2099 H             1 RES     
     885 H          -43.9954    15.3081    -3.8988 H             1 RES     
     886 H          -43.4105    13.9766    -2.8267 H             1 RES     
     887 H          -49.2126    10.1616    -0.3339 H             1 RES     
     888 H          -49.1453    10.0384    -1.9480 H             1 RES     
     889 H          -49.7893    12.3147     0.1434 H             1 RES     
     890 H          -50.8913    11.3732    -0.8766 H             1 RES     
     891 H          -49.7697    12.5787    -1.6130 H             1 RES     
     892 H          -46.9407     2.8070    -0.2481 H             1 RES     
     893 H          -52.1789     2.8625    -1.2338 H             1 RES     
     894 H          -52.0659     2.9105     0.5807 H             1 RES     
     895 H          -51.1848     0.6125    -1.1784 H             1 RES     
     896 H          -51.0330    -0.6142     0.9943 H             1 RES     
     897 H          -51.5081     0.8435     1.8644 H             1 RES     
     898 H          -49.0073     0.5118     0.1318 H             1 RES     
     899 H          -49.0492     0.3779     1.9129 H             1 RES     
     900 H          -49.3700     1.9075     1.1814 H             1 RES     
     901 H          -53.6576     0.9960    -1.2094 H             1 RES     
     902 H          -53.6941     0.9911     0.5523 H             1 RES     
     903 H          -52.8257    -1.3654     0.5587 H             1 RES     
     904 H          -52.7514    -1.3338    -1.2042 H             1 RES     
     905 H          -55.2358    -0.9662    -1.2398 H             1 RES     
     906 H          -55.2507    -0.9673     0.5314 H             1 RES     
     907 H          -54.3073    -3.2936    -1.2229 H             1 RES     
     908 H          -55.8558    -3.2038    -0.3553 H             1 RES     
     909 H          -54.3307    -3.2887     0.5499 H             1 RES     
     910 H          -57.5132    12.5326    -0.1072 H             1 RES     
     911 H          -57.5095    12.2775    -1.9484 H             1 RES     
     912 H          -59.1542    15.0256    -0.4760 H             1 RES     
     913 H          -59.4947    16.1435    -2.2247 H             1 RES     
     914 H          -58.8494    14.7419    -3.2452 H             1 RES     
     915 H          -56.5825    15.3621    -2.3064 H             1 RES     
     916 H          -57.4286    16.7731    -1.5333 H             1 RES     
     917 H          -57.9252    17.8122    -3.2797 H             1 RES     
     918 H          -57.2069    16.4649    -4.2919 H             1 RES     
     919 H          -55.6555    18.3648    -2.3469 H             1 RES     
     920 H          -55.4963    18.2356    -4.0355 H             1 RES     
     921 H          -54.9944    16.8709    -2.9630 H             1 RES     
     922 H          -61.0195    13.4069    -0.4914 H             1 RES     
     923 H          -60.9553    13.2792    -2.1054 H             1 RES     
     924 H          -61.4691    15.5894    -0.0148 H             1 RES     
     925 H          -62.6223    14.7156    -1.0381 H             1 RES     
     926 H          -61.4296    15.8533    -1.7706 H             1 RES     
     927 H          -59.1913     5.9302    -0.4042 H             1 RES     
     928 H          -64.4137     6.2979    -1.4057 H             1 RES     
     929 H          -64.3037     6.3378     0.4092 H             1 RES     
     930 H          -63.5555     3.9927    -1.3494 H             1 RES     
     931 H          -63.4836     2.7574     0.8225 H             1 RES     
     932 H          -63.8738     4.2402     1.6926 H             1 RES     
     933 H          -61.3919     3.7616    -0.0328 H             1 RES     
     934 H          -61.4471     3.6291     1.7480 H             1 RES     
     935 H          -61.6741     5.1756     1.0170 H             1 RES     
     936 H          -66.0011     4.5227    -1.3875 H             1 RES     
     937 H          -66.0431     4.5187     0.3740 H             1 RES     
     938 H          -65.3165     2.1147     0.3809 H             1 RES     
     939 H          -65.2351     2.1431    -1.3818 H             1 RES     
     940 H          -67.6931     2.6579    -1.4245 H             1 RES     
     941 H          -67.7134     2.6564     0.3467 H             1 RES     
     942 H          -66.9048     0.2794    -1.4070 H             1 RES     
     943 H          -68.4478     0.4605    -0.5440 H             1 RES     
     944 H          -66.9333     0.2843     0.3657 H             1 RES     
     945 H          -69.1761    16.2610    -0.2698 H             1 RES     
     946 H          -69.1621    16.0143    -2.1202 H             1 RES     
     947 H          -70.6569    18.8558    -0.6548 H             1 RES     
     948 H          -70.9235    19.9904    -2.4039 H             1 RES     
     949 H          -70.3609    18.5538    -3.4241 H             1 RES     
     950 H          -68.0613    19.0426    -2.4843 H             1 RES     
     951 H          -68.8259    20.5020    -1.7137 H             1 RES     
     952 H          -69.2542    21.5672    -3.4585 H             1 RES     
     953 H          -68.6145    20.1788    -4.4692 H             1 RES     
     954 H          -66.9573    21.9822    -2.5182 H             1 RES     
     955 H          -66.8005    21.8436    -4.2060 H             1 RES     
     956 H          -66.3858    20.4510    -3.1319 H             1 RES     
     957 H          -72.6180    17.3493    -0.6794 H             1 RES     
     958 H          -72.5551    17.2239    -2.2934 H             1 RES     
     959 H          -72.9362    19.5567    -0.2005 H             1 RES     
     960 H          -74.1352    18.7543    -1.2303 H             1 RES     
     961 H          -72.8725    19.8172    -1.9570 H             1 RES     
     962 H          -71.2338     9.7763    -0.5932 H             1 RES     
     963 H          -76.4221    10.4549    -1.6099 H             1 RES     
     964 H          -76.3153    10.4880     0.2053 H             1 RES     
     965 H          -75.7027     8.1027    -1.5515 H             1 RES     
     966 H          -75.7111     6.8653     0.6204 H             1 RES     
     967 H          -76.0150     8.3686     1.4896 H             1 RES     
     968 H          -73.5607     7.7432    -0.2284 H             1 RES     
     969 H          -73.6291     7.6141     1.5522 H             1 RES     
     970 H          -73.7614     9.1714     0.8209 H             1 RES     
     971 H          -78.1123     8.7774    -1.5969 H             1 RES     
     972 H          -78.1598     8.7758     0.1645 H             1 RES     
     973 H          -77.5777     6.3328     0.1730 H             1 RES     
     974 H          -77.4893     6.3564    -1.5894 H             1 RES     
     975 H          -79.9122     7.0166    -1.6395 H             1 RES     
     976 H          -79.9379     7.0163     0.1316 H             1 RES     
     977 H          -79.2669     4.5954    -1.6201 H             1 RES     
     978 H          -80.7991     4.8680    -0.7618 H             1 RES     
     979 H          -79.3005     4.6019     0.1525 H             1 RES     
     980 H          -80.5829    20.6854    -0.4875 H             1 RES     
     981 H          -80.5833    20.4385    -2.3357 H             1 RES     
     982 H          -81.9083    23.3624    -0.8714 H             1 RES     
     983 H          -82.1004    24.5129    -2.6205 H             1 RES     
     984 H          -81.6201    23.0459    -3.6398 H             1 RES     
     985 H          -79.2999    23.3947    -2.6894 H             1 RES     
     986 H          -79.9786    24.8960    -1.9196 H             1 RES     
     987 H          -80.3363    25.9872    -3.6654 H             1 RES     
     988 H          -79.7765    24.5645    -4.6755 H             1 RES     
     989 H          -78.0226    26.2641    -2.7163 H             1 RES     
     990 H          -77.8681    26.1184    -4.4038 H             1 RES     
     991 H          -77.5405    24.7025    -3.3302 H             1 RES     
     992 H          -83.9545    21.9754    -0.9048 H             1 RES     
     993 H          -83.8933    21.8466    -2.5187 H             1 RES     
     994 H          -84.1431    24.1968    -0.4252 H             1 RES     
     995 H          -85.3842    23.4680    -1.4596 H             1 RES     
     996 H          -84.0583    24.4551    -2.1808 H             1 RES     
     997 H          -83.0252    14.3336    -0.8223 H             1 RES     
     998 H          -88.1600    15.3210    -1.8575 H             1 RES     
     999 H          -88.0583    15.3456    -0.0419 H             1 RES     
    1000 H          -87.5822    12.9301    -1.7997 H             1 RES     
    1001 H          -87.6725    11.6929     0.3705 H             1 RES     
    1002 H          -87.8896    13.2106     1.2406 H             1 RES     
    1003 H          -85.4705    12.4421    -0.4691 H             1 RES     
    1004 H          -85.5532    12.3153     1.3111 H             1 RES     
    1005 H          -85.5897    13.8785     0.5814 H             1 RES     
    1006 H          -89.9471    13.7471    -1.8531 H             1 RES     
    1007 H          -90.0014    13.7463    -0.0919 H             1 RES     
    1008 H          -89.5658    11.2730    -0.0845 H             1 RES     
    1009 H          -89.4695    11.2933    -1.8465 H             1 RES     
    1010 H          -91.8486    12.0967    -1.9048 H             1 RES     
    1011 H          -91.8810    12.0959    -0.1338 H             1 RES     
    1012 H          -91.3487     9.6413    -1.8863 H             1 RES     
    1013 H          -92.8651    10.0037    -1.0332 H             1 RES     
    1014 H          -91.3886     9.6479    -0.1138 H             1 RES     
    1015 H          -91.7046    25.7817    -0.7423 H             1 RES     
    1016 H          -91.7194    25.5358    -2.5878 H             1 RES     
    1017 H          -92.8696    28.5310    -1.1230 H             1 RES     
    1018 H          -92.9865    29.6939    -2.8712 H             1 RES     
    1019 H          -92.5901    28.2020    -3.8905 H             1 RES     
    1020 H          -90.2580    28.4091    -2.9288 H             1 RES     
    1021 H          -90.8485    29.9469    -2.1592 H             1 RES     
    1022 H          -91.1338    31.0603    -3.9055 H             1 RES     
    1023 H          -90.6559    29.6085    -4.9156 H             1 RES     
    1024 H          -88.8118    31.1982    -2.9475 H             1 RES     
    1025 H          -88.6599    31.0458    -4.6347 H             1 RES     
    1026 H          -88.4208    29.6116    -3.5622 H             1 RES     
    1027 H          -94.9937    27.2689    -1.1654 H             1 RES     
    1028 H          -94.9348    27.1371    -2.7791 H             1 RES     
    1029 H          -95.0522    29.4964    -0.6839 H             1 RES     
    1030 H          -96.3310    28.8439    -1.7233 H             1 RES     
    1031 H          -94.9465    29.7519    -2.4385 H             1 RES     
    1032 H          -94.5234    19.5856    -1.0899 H             1 RES     
    1033 H          -99.5861    20.8786    -2.1433 H             1 RES     
    1034 H          -99.4902    20.8947    -0.3272 H             1 RES     
    1035 H          -99.1521    18.4574    -2.0870 H             1 RES     
    1036 H          -99.3245    17.2249     0.0809 H             1 RES     
    1037 H          -99.4541    18.7517     0.9526 H             1 RES     
    1038 H          -97.0784    17.8425    -0.7491 H             1 RES     
    1039 H          -97.1755    17.7185     1.0305 H             1 RES     
    1040 H          -97.1159    19.2822     0.3032 H             1 RES     
    1041 H         -101.4639    19.4140    -2.1481 H             1 RES     
    1042 H         -101.5250    19.4141    -0.3871 H             1 RES     
    1043 H         -101.2376    16.9192    -0.3820 H             1 RES     
    1044 H         -101.1335    16.9361    -2.1436 H             1 RES     
    1045 H         -103.4601    17.8800    -2.2096 H             1 RES     
    1046 H         -103.4995    17.8787    -0.4387 H             1 RES     
    1047 H         -103.1076    15.3992    -2.1931 H             1 RES     
    1048 H         -104.6031    15.8502    -1.3452 H             1 RES     
    1049 H         -103.1539    15.4057    -0.4207 H             1 RES     
    1050 H         -102.5015    31.5324    -1.0317 H             1 RES     
    1051 H         -102.5305    31.2891    -2.8744 H             1 RES     
    1052 H         -103.5013    34.3439    -1.4073 H             1 RES     
    1053 H         -103.5423    35.5155    -3.1534 H             1 RES     
    1054 H         -103.2312    34.0041    -4.1739 H             1 RES     
    1055 H         -100.8961    34.0687    -3.2002 H             1 RES     
    1056 H         -101.3964    35.6374    -2.4300 H             1 RES     
    1057 H         -101.6077    36.7692    -4.1765 H             1 RES     
    1058 H         -101.2132    35.2933    -5.1872 H             1 RES     
    1059 H          -99.2858    36.7674    -3.2093 H             1 RES     
    1060 H          -99.1367    36.6089    -4.8964 H             1 RES     
    1061 H          -98.9872    35.1613    -3.8256 H             1 RES     
    1062 H         -105.6958    33.2117    -1.4586 H             1 RES     
    1063 H         -105.6397    33.0772    -3.0724 H             1 RES     
    1064 H         -105.6242    35.4373    -0.9744 H             1 RES     
    1065 H         -106.9360    34.8635    -2.0190 H             1 RES     
    1066 H         -105.4976    35.6893    -2.7279 H             1 RES     
    1067 H         -105.6869    25.5145    -1.3937 H             1 RES     
    1068 H         -110.6592    27.1089    -2.4646 H             1 RES     
    1069 H         -110.5699    27.1163    -0.6482 H             1 RES     
    1070 H         -110.3708    24.6660    -2.4111 H             1 RES     
    1071 H         -110.6251    23.4425    -0.2461 H             1 RES     
    1072 H         -110.6669    24.9730     0.6278 H             1 RES     
    1073 H         -108.3429    23.9263    -1.0663 H             1 RES     
    1074 H         -108.4544    23.8055     0.7128 H             1 RES     
    1075 H         -108.2986    25.3639    -0.0115 H             1 RES     
    1076 H         -112.6211    25.7590    -2.4795 H             1 RES     
    1077 H         -112.6891    25.7600    -0.7188 H             1 RES     
    1078 H         -112.5512    23.2523    -0.7171 H             1 RES     
    1079 H         -112.4392    23.2657    -2.4782 H             1 RES     
    1080 H         -114.7051    24.3470    -2.5516 H             1 RES     
    1081 H         -114.7515    24.3452    -0.7809 H             1 RES     
    1082 H         -114.5013    21.8495    -2.5382 H             1 RES     
    1083 H         -115.9706    22.3876    -1.6954 H             1 RES     
    1084 H         -114.5543    21.8560    -0.7660 H             1 RES     
    1085 H         -112.9342    37.9180    -1.3529 H             1 RES     
    1086 H         -112.9774    37.6789    -3.1927 H             1 RES     
    1087 H         -113.7649    40.7809    -1.7213 H             1 RES     
    1088 H         -113.7296    41.9577    -3.4643 H             1 RES     
    1089 H         -113.5047    40.4325    -4.4872 H             1 RES     
    1090 H         -111.1753    40.3540    -3.5010 H             1 RES     
    1091 H         -111.5839    41.9481    -2.7296 H             1 RES     
    1092 H         -111.7199    43.0942    -4.4757 H             1 RES     
    1093 H         -111.4099    41.5994    -5.4877 H             1 RES     
    1094 H         -109.4065    42.9526    -3.4994 H             1 RES     
    1095 H         -109.2603    42.7886    -5.1864 H             1 RES     
    1096 H         -109.2013    41.3327    -4.1180 H             1 RES     
    1097 H         -116.0221    39.7834    -1.7819 H             1 RES     
    1098 H         -115.9689    39.6467    -3.3957 H             1 RES     
    1099 H         -115.8207    41.9993    -1.2940 H             1 RES     
    1100 H         -117.1605    41.5063    -2.3439 H             1 RES     
    1101 H         -115.6733    42.2470    -3.0461 H             1 RES     
    1102 H         -116.4755    32.1000    -1.7311 H             1 RES     
    1103 H         -121.3391    33.9906    -2.8190 H             1 RES     
    1104 H         -121.2570    33.9895    -1.0023 H             1 RES     
    1105 H         -121.1975    31.5347    -2.7694 H             1 RES     
    1106 H         -121.5335    30.3247    -0.6080 H             1 RES     
    1107 H         -121.4873    31.8534     0.2689 H             1 RES     
    1108 H         -119.2230    30.6727    -1.4179 H             1 RES     
    1109 H         -119.3489    30.5555     0.3604 H             1 RES     
    1110 H         -119.0972    32.1032    -0.3600 H             1 RES     
    1111 H         -123.3781    32.7605    -2.8446 H             1 RES     
    1112 H         -123.4533    32.7623    -1.0841 H             1 RES     
    1113 H         -123.4655    30.2509    -1.0870 H             1 RES     
    1114 H         -123.3456    30.2608    -2.8477 H             1 RES     
    1115 H         -125.5425    31.4757    -2.9279 H             1 RES     
    1116 H         -125.5962    31.4735    -1.1575 H             1 RES     
    1117 H         -125.4885    28.9705    -2.9189 H             1 RES     
    1118 H         -126.9264    29.5940    -2.0809 H             1 RES     
    1119 H         -125.5483    28.9769    -1.1469 H             1 RES     
    1120 H         -122.9644    44.9165    -1.7027 H             1 RES     
    1121 H         -123.0216    44.6834    -3.5395 H             1 RES     
    1122 H         -123.6229    47.8201    -2.0620 H             1 RES     
    1123 H         -123.5109    48.9984    -3.8011 H             1 RES     
    1124 H         -123.3728    47.4649    -4.8273 H             1 RES     
    1125 H         -121.0580    47.2434    -3.8283 H             1 RES     
    1126 H         -121.3736    48.8572    -3.0549 H             1 RES     
    1127 H         -121.4331    50.0136    -4.8000 H             1 RES     
    1128 H         -121.2087    48.5052    -5.8140 H             1 RES     
    1129 H         -119.1369    49.7325    -3.8147 H             1 RES     
    1130 H         -118.9936    49.5635    -5.5016 H             1 RES     
    1131 H         -119.0258    48.1045    -4.4363 H             1 RES     
    1132 H         -125.9348    46.9616    -2.1323 H             1 RES     
    1133 H         -125.8847    46.8233    -3.7460 H             1 RES     
    1134 H         -125.6043    49.1598    -1.6395 H             1 RES     
    1135 H         -126.9672    48.7496    -2.6949 H             1 RES     
    1136 H         -125.4362    49.4025    -3.3902 H             1 RES     
    1137 H         -126.8496    39.3199    -2.0993 H             1 RES     
    1138 H         -131.5866    41.5005    -3.2034 H             1 RES     
    1139 H         -131.5125    41.4907    -1.3863 H             1 RES     
    1140 H         -131.5926    39.0405    -3.1588 H             1 RES     
    1141 H         -132.0097    37.8483    -1.0017 H             1 RES     
    1142 H         -131.8758    39.3696    -0.1210 H             1 RES     
    1143 H         -129.6791    38.0589    -1.8011 H             1 RES     
    1144 H         -129.8194    37.9458    -0.0236 H             1 RES     
    1145 H         -129.4724    39.4771    -0.7394 H             1 RES     
    1146 H         -133.6955    40.3948    -3.2402 H             1 RES     
    1147 H         -133.7780    40.3975    -1.4801 H             1 RES     
    1148 H         -133.9407    37.8913    -1.4889 H             1 RES     
    1149 H         -133.8128    37.8977    -3.2490 H             1 RES     
    1150 H         -135.9326    39.2422    -3.3356 H             1 RES     
    1151 H         -135.9940    39.2395    -1.5654 H             1 RES     
    1152 H         -136.0288    36.7382    -3.3321 H             1 RES     
    1153 H         -137.4304    37.4450    -2.4987 H             1 RES     
    1154 H         -136.0957    36.7445    -1.5604 H             1 RES     
    1155 H         -132.5551    52.5039    -2.0774 H             1 RES     
    1156 H         -132.6260    52.2785    -3.9112 H             1 RES     
    1157 H         -133.0392    55.4378    -2.4259 H             1 RES     
    1158 H         -132.8499    56.6134    -4.1601 H             1 RES     
    1159 H         -132.7989    55.0772    -5.1907 H             1 RES     
    1160 H         -130.5077    54.7135    -4.1787 H             1 RES     
    1161 H         -130.7293    56.3410    -3.4026 H             1 RES     
    1162 H         -130.7114    57.5034    -5.1461 H             1 RES     
    1163 H         -130.5731    55.9870    -6.1629 H             1 RES     
    1164 H         -128.4409    57.0837    -4.1518 H             1 RES     
    1165 H         -128.3005    56.9103    -5.8387 H             1 RES     
    1166 H         -128.4242    55.4534    -4.7773 H             1 RES     
    1167 H         -135.3973    54.7215    -2.5061 H             1 RES     
    1168 H         -135.3501    54.5822    -4.1200 H             1 RES     
    1169 H         -134.9387    56.8943    -2.0076 H             1 RES     
    1170 H         -136.3197    56.5685    -3.0685 H             1 RES     
    1171 H         -134.7501    57.1312    -3.7566 H             1 RES     
    1172 H         -136.7710    47.1495    -2.4950 H             1 RES     
    1173 H         -141.3636    49.6130    -3.6142 H             1 RES     
    1174 H         -141.2984    49.5946    -1.7968 H             1 RES     
    1175 H         -141.5175    47.1576    -3.5760 H             1 RES     
    1176 H         -142.0152    45.9877    -1.4238 H             1 RES     
    1177 H         -141.7941    47.4961    -0.5386 H             1 RES     
    1178 H         -139.6726    46.0598    -2.2126 H             1 RES     
    1179 H         -139.8274    45.9512    -0.4360 H             1 RES     
    1180 H         -139.3858    47.4606    -1.1463 H             1 RES     
    1181 H         -143.5350    48.6360    -3.6631 H             1 RES     
    1182 H         -143.6250    48.6395    -1.9033 H             1 RES     
    1183 H         -143.9378    46.1477    -1.9193 H             1 RES     
    1184 H         -143.8019    46.1504    -3.6788 H             1 RES     
    1185 H         -145.8368    47.6200    -3.7711 H             1 RES     
    1186 H         -145.9062    47.6169    -2.0012 H             1 RES     
    1187 H         -146.0831    45.1263    -3.7745 H             1 RES     
    1188 H         -147.4435    45.9140    -2.9454 H             1 RES     
    1189 H         -146.1575    45.1325    -2.0031 H             1 RES     
    1190 H         -141.6704    60.6539    -2.4733 H             1 RES     
    1191 H         -141.7543    60.4381    -4.3040 H             1 RES     
    1192 H         -141.9784    63.6075    -2.8090 H             1 RES     
    1193 H         -141.7118    64.7766    -4.5377 H             1 RES     
    1194 H         -141.7477    63.2432    -5.5735 H             1 RES     
    1195 H         -139.4891    62.7383    -4.5485 H             1 RES     
    1196 H         -139.6161    64.3738    -3.7687 H             1 RES     
    1197 H         -139.5199    65.5380    -5.5101 H             1 RES     
    1198 H         -139.4681    64.0188    -6.5303 H             1 RES     
    1199 H         -137.2836    64.9809    -4.5069 H             1 RES     
    1200 H         -137.1462    64.8037    -6.1940 H             1 RES     
    1201 H         -137.3614    63.3541    -5.1372 H             1 RES     
    1202 H         -144.3739    63.0366    -2.8996 H             1 RES     
    1203 H         -144.3298    62.8968    -4.5137 H             1 RES     
    1204 H         -143.7892    65.1761    -2.3942 H             1 RES     
    1205 H         -145.1829    64.9360    -3.4609 H             1 RES     
    1206 H         -143.5801    65.4065    -4.1415 H             1 RES     
    1207 H         -146.2028    55.5621    -2.9145 H             1 RES     
    1208 H         -150.6335    58.3003    -4.0477 H             1 RES     
    1209 H         -150.5781    58.2733    -2.2301 H             1 RES     
    1210 H         -150.9351    55.8586    -4.0172 H             1 RES     
    1211 H         -151.5124    54.7151    -1.8707 H             1 RES     
    1212 H         -151.2051    56.2052    -0.9802 H             1 RES     
    1213 H         -149.1660    54.6482    -2.6486 H             1 RES     
    1214 H         -149.3354    54.5445    -0.8731 H             1 RES     
    1215 H         -148.8005    56.0264    -1.5771 H             1 RES     
    1216 H         -152.8595    57.4559    -4.1092 H             1 RES     
    1217 H         -152.9575    57.4603    -2.3499 H             1 RES     
    1218 H         -153.4196    54.9919    -2.3745 H             1 RES     
    1219 H         -153.2754    54.9910    -4.1333 H             1 RES     
    1220 H         -155.2177    56.5806    -4.2307 H             1 RES     
    1221 H         -155.2955    56.5772    -2.4611 H             1 RES     
    1222 H         -155.6137    54.1063    -4.2423 H             1 RES     
    1223 H         -156.9281    54.9724    -3.4171 H             1 RES     
    1224 H         -155.6959    54.1124    -2.4713 H             1 RES     
    1225 H         -150.2762    69.3393    -2.8859 H             1 RES     
    1226 H         -150.3721    69.1344    -4.7139 H             1 RES     
    1227 H         -150.4076    72.3020    -3.2069 H             1 RES     
    1228 H         -150.0637    73.4600    -4.9293 H             1 RES     
    1229 H         -150.1853    71.9347    -5.9712 H             1 RES     
    1230 H         -147.9684    71.2902    -4.9334 H             1 RES     
    1231 H         -148.0002    72.9277    -4.1491 H             1 RES     
    1232 H         -147.8252    74.0894    -5.8877 H             1 RES     
    1233 H         -147.8598    72.5729    -6.9122 H             1 RES     
    1234 H         -145.6317    73.3966    -4.8760 H             1 RES     
    1235 H         -145.4970    73.2162    -6.5631 H             1 RES     
    1236 H         -145.8036    71.7791    -5.5119 H             1 RES     
    1237 H         -152.8339    71.8759    -3.3083 H             1 RES     
    1238 H         -152.7914    71.7378    -4.9230 H             1 RES     
    1239 H         -152.1256    73.9762    -2.7962 H             1 RES     
    1240 H         -153.5392    73.8290    -3.8607 H             1 RES     
    1241 H         -151.8998    74.1993    -4.5394 H             1 RES     
    1242 H         -155.1019    64.5198    -3.3536 H             1 RES     
    1243 H         -159.3577    67.5153    -4.5021 H             1 RES     
    1244 H         -159.3121    67.4789    -2.6823 H             1 RES     
    1245 H         -159.8130    65.1052    -4.4795 H             1 RES     
    1246 H         -160.4669    63.9971    -2.3360 H             1 RES     
    1247 H         -160.0739    65.4656    -1.4420 H             1 RES     
    1248 H         -158.1232    63.7934    -3.1041 H             1 RES     
    1249 H         -158.3081    63.6934    -1.3294 H             1 RES     
    1250 H         -157.6822    65.1424    -2.0234 H             1 RES     
    1251 H         -161.6324    66.8235    -4.5742 H             1 RES     
    1252 H         -161.7383    66.8287    -2.8157 H             1 RES     
    1253 H         -162.3506    64.3934    -2.8503 H             1 RES     
    1254 H         -162.1982    64.3888    -4.6084 H             1 RES     
    1255 H         -164.0398    66.0935    -4.7100 H             1 RES     
    1256 H         -164.1264    66.0897    -2.9407 H             1 RES     
    1257 H         -164.5842    63.6476    -4.7313 H             1 RES     
    1258 H         -165.8481    64.5889    -3.9096 H             1 RES     
    1259 H         -164.6747    63.6535    -2.9607 H             1 RES     
    1260 H         -163.7987    75.1224    -4.7467 H             1 RES     
    1261 H         -163.9001    74.9807    -2.9240 H             1 RES     
    1262 H         -166.2610    75.0994    -4.8283 H             1 RES     
    1263 H         -167.5610    75.4623    -2.7242 H             1 RES     
    1264 H         -166.0884    75.2810    -1.7731 H             1 RES     
    1265 H         -165.9176    72.9203    -2.5576 H             1 RES     
    1266 H         -167.3158    73.1700    -3.6193 H             1 RES     
    1267 H         -168.6545    73.5993    -1.5226 H             1 RES     
    1268 H         -167.1745    73.3799    -0.5673 H             1 RES     
    1269 H         -168.3852    71.2702    -2.4277 H             1 RES     
    1270 H         -168.4818    71.2702    -0.6502 H             1 RES     
    1271 H         -166.9153    71.0644    -1.4613 H             1 RES     
    1272 H         -164.9022    77.2071    -4.7565 H             1 RES     
    1273 H         -164.9946    77.2218    -2.9974 H             1 RES     
    1274 H         -167.3914    77.3680    -4.8943 H             1 RES     
    1275 H         -166.6839    78.7395    -4.0017 H             1 RES     
    1276 H         -167.4862    77.4485    -3.1255 H             1 RES     
    1277 H         -158.6778    76.1618    -3.5297 H             1 RES     
    1278 H         -155.6225    71.9021    -3.3854 H             1 RES     
    1279 H         -152.2024    69.2446    -3.8099 H             1 RES     
    1280 H         -152.5034    68.9748    -1.9452 H             1 RES     
    1281 H         -151.5940    70.7108    -3.1964 H             1 RES     
    1282 H         -151.2862    72.6760    -1.2839 H             1 RES     
    1283 H         -151.6291    71.2846    -0.3025 H             1 RES     
    1284 H         -153.6968    72.9270    -2.0010 H             1 RES     
    1285 H         -153.5006    72.9981    -0.3715 H             1 RES     
    1286 H         -154.1081    71.4875    -1.2406 H             1 RES     
    1287 H         -149.0412    70.9360    -3.0139 H             1 RES     
    1288 H         -149.1415    70.1821    -1.3888 H             1 RES     
    1289 H         -148.5885    72.6304    -1.0694 H             1 RES     
    1290 H         -148.8135    72.9624    -2.6800 H             1 RES     
    1291 H         -146.9837    70.9298    -3.3423 H             1 RES     
    1292 H         -146.9055    70.7497    -1.6491 H             1 RES     
    1293 H         -146.4291    73.3339    -3.2695 H             1 RES     
    1294 H         -145.1716    72.2885    -2.6272 H             1 RES     
    1295 H         -146.3676    73.2518    -1.5958 H             1 RES     
    1296 H         -147.1292    62.9089    -2.9649 H             1 RES     
    1297 H         -143.5881    60.4424    -3.4018 H             1 RES     
    1298 H         -143.8649    60.1645    -1.5341 H             1 RES     
    1299 H         -143.0686    61.9435    -2.7964 H             1 RES     
    1300 H         -142.8696    63.9307    -0.8843 H             1 RES     
    1301 H         -143.1218    62.5218     0.0996 H             1 RES     
    1302 H         -145.2904    64.0331    -1.5915 H             1 RES     
    1303 H         -145.0939    64.1227     0.0360 H             1 RES     
    1304 H         -145.6139    62.5747    -0.8243 H             1 RES     
    1305 H         -140.5271    62.3286    -2.6294 H             1 RES     
    1306 H         -140.5775    61.5772    -0.9954 H             1 RES     
    1307 H         -140.1707    64.0480    -0.6865 H             1 RES     
    1308 H         -140.4225    64.3656    -2.2963 H             1 RES     
    1309 H         -138.4764    62.4411    -2.9619 H             1 RES     
    1310 H         -138.3813    62.2727    -1.2682 H             1 RES     
    1311 H         -138.0686    64.8760    -2.8972 H             1 RES     
    1312 H         -136.7470    63.9100    -2.2587 H             1 RES     
    1313 H         -137.9946    64.8017    -1.2239 H             1 RES     
    1314 H         -138.1384    54.4270    -2.5599 H             1 RES     
    1315 H         -134.4573    52.1755    -3.0106 H             1 RES     
    1316 H         -134.7088    51.8900    -1.1400 H             1 RES     
    1317 H         -134.0294    53.7066    -2.4128 H             1 RES     
    1318 H         -133.9398    55.7084    -0.4999 H             1 RES     
    1319 H         -134.1007    54.2875     0.4854 H             1 RES     
    1320 H         -136.3657    55.6627    -1.1972 H             1 RES     
    1321 H         -136.1661    55.7695     0.4285 H             1 RES     
    1322 H         -136.5967    54.1897    -0.4247 H             1 RES     
    1323 H         -131.5085    54.2500    -2.2604 H             1 RES     
    1324 H         -131.5098    53.5035    -0.6180 H             1 RES     
    1325 H         -131.2490    55.9879    -0.3181 H             1 RES     
    1326 H         -131.5266    56.2899    -1.9270 H             1 RES     
    1327 H         -129.4709    54.4803    -2.5969 H             1 RES     
    1328 H         -129.3601    54.3240    -0.9028 H             1 RES     
    1329 H         -129.2112    56.9369    -2.5389 H             1 RES     
    1330 H         -127.8307    56.0536    -1.9045 H             1 RES     
    1331 H         -129.1255    56.8707    -0.8660 H             1 RES     
    1332 H         -128.6517    46.5019    -2.1748 H             1 RES     
    1333 H         -124.8442    44.4730    -2.6402 H             1 RES     
    1334 H         -125.0706    44.1808    -0.7670 H             1 RES     
    1335 H         -124.5092    46.0282    -2.0491 H             1 RES     
    1336 H         -124.5298    48.0376    -0.1347 H             1 RES     
    1337 H         -124.5994    46.6101     0.8514 H             1 RES     
    1338 H         -126.9517    47.8443    -0.8221 H             1 RES     
    1339 H         -126.7505    47.9679     0.8019 H             1 RES     
    1340 H         -127.0900    46.3623    -0.0452 H             1 RES     
    1341 H         -122.0189    46.7278    -1.9109 H             1 RES     
    1342 H         -121.9721    45.9887    -0.2606 H             1 RES     
    1343 H         -121.8571    48.4781     0.0315 H             1 RES     
    1344 H         -122.1595    48.7633    -1.5763 H             1 RES     
    1345 H         -120.0012    47.0751    -2.2514 H             1 RES     
    1346 H         -119.8758    46.9311    -0.5570 H             1 RES     
    1347 H         -119.8903    49.5442    -2.1987 H             1 RES     
    1348 H         -118.4563    48.7467    -1.5689 H             1 RES     
    1349 H         -119.7937    49.4863    -0.5263 H             1 RES     
    1350 H         -118.7048    39.1609    -1.8136 H             1 RES     
    1351 H         -114.7846    37.3614    -2.2943 H             1 RES     
    1352 H         -114.9861    37.0635    -0.4188 H             1 RES     
    1353 H         -114.5438    38.9349    -1.7091 H             1 RES     
    1354 H         -114.6751    40.9447     0.2076 H             1 RES     
    1355 H         -114.6532    39.5160     1.1939 H             1 RES     
    1356 H         -117.0838    40.6049    -0.4700 H             1 RES     
    1357 H         -116.8824    40.7450     1.1523 H             1 RES     
    1358 H         -117.1295    39.1191     0.3104 H             1 RES     
    1359 H         -112.0938    39.7880    -1.5847 H             1 RES     
    1360 H         -111.9998    39.0586     0.0731 H             1 RES     
    1361 H         -112.0299    41.5446     0.3586 H             1 RES     
    1362 H         -112.3561    41.8117    -1.2480 H             1 RES     
    1363 H         -110.1027    40.2509    -1.9291 H             1 RES     
    1364 H         -109.9635    40.1194    -0.2345 H             1 RES     
    1365 H         -110.1407    42.7234    -1.8805 H             1 RES     
    1366 H         -108.6586    42.0144    -1.2556 H             1 RES     
    1367 H         -110.0340    42.6740    -0.2087 H             1 RES     
    1368 H         -108.3346    32.4293    -1.4796 H             1 RES     
    1369 H         -104.3159    30.8651    -1.9764 H             1 RES     
    1370 H         -104.4927    30.5622    -0.0987 H             1 RES     
    1371 H         -104.1702    32.4509    -1.3958 H             1 RES     
    1372 H         -104.4118    34.4541     0.5235 H             1 RES     
    1373 H         -104.2989    33.0296     1.5094 H             1 RES     
    1374 H         -106.7986    33.9693    -0.1444 H             1 RES     
    1375 H         -106.5983    34.1253     1.4762 H             1 RES     
    1376 H         -106.7518    32.4852     0.6387 H             1 RES     
    1377 H         -101.7697    33.4542    -1.2849 H             1 RES     
    1378 H         -101.6295    32.7368     0.3799 H             1 RES     
    1379 H         -101.8038    35.2113     0.6597 H             1 RES     
    1380 H         -102.1527    35.4590    -0.9455 H             1 RES     
    1381 H          -99.8118    34.0312    -1.6333 H             1 RES     
    1382 H          -99.6600    33.9125     0.0614 H             1 RES     
    1383 H          -99.9984    36.4980    -1.5877 H             1 RES     
    1384 H          -98.4739    35.8801    -0.9680 H             1 RES     
    1385 H          -99.8824    36.4574     0.0836 H             1 RES     
    1386 H          -97.5793    26.3298    -1.1760 H             1 RES     
    1387 H          -93.4762    25.0062    -1.6892 H             1 RES     
    1388 H          -93.6285    24.6990     0.1904 H             1 RES     
    1389 H          -93.4264    26.5986    -1.1122 H             1 RES     
    1390 H          -93.7777    28.5880     0.8099 H             1 RES     
    1391 H          -93.5745    27.1732     1.7952 H             1 RES     
    1392 H          -96.1337    27.9602     0.1515 H             1 RES     
    1393 H          -95.9358    28.1317     1.7706 H             1 RES     
    1394 H          -95.9951    26.4831     0.9366 H             1 RES     
    1395 H          -91.0844    27.7482    -1.0141 H             1 RES     
    1396 H          -90.8992    27.0451     0.6571 H             1 RES     
    1397 H          -91.2162    29.5001     0.9320 H             1 RES     
    1398 H          -91.5867    29.7270    -0.6718 H             1 RES     
    1399 H          -89.1663    28.4374    -1.3669 H             1 RES     
    1400 H          -89.0027    28.3316     0.3277 H             1 RES     
    1401 H          -89.5007    30.8896    -1.3231 H             1 RES     
    1402 H          -87.9393    30.3648    -0.7089 H             1 RES     
    1403 H          -89.3759    30.8579     0.3476 H             1 RES     
    1404 H          -86.4780    20.8835    -0.9055 H             1 RES     
    1405 H          -82.3050    19.8048    -1.4354 H             1 RES     
    1406 H          -82.4329    19.4939     0.4459 H             1 RES     
    1407 H          -82.3514    21.3980    -0.8607 H             1 RES     
    1408 H          -82.8114    23.3667     1.0643 H             1 RES     
    1409 H          -82.5189    21.9669     2.0487 H             1 RES     
    1410 H          -85.1279    22.5982     0.4151 H             1 RES     
    1411 H          -84.9338    22.7846     2.0327 H             1 RES     
    1412 H          -84.8982    21.1333     1.2014 H             1 RES     
    1413 H          -80.0767    22.6894    -0.7748 H             1 RES     
    1414 H          -79.8476    22.0027     0.9021 H             1 RES     
    1415 H          -80.3055    24.4308     1.1728 H             1 RES     
    1416 H          -80.6965    24.6351    -0.4296 H             1 RES     
    1417 H          -78.2047    23.4886    -1.1325 H             1 RES     
    1418 H          -78.0302    23.3959     0.5620 H             1 RES     
    1419 H          -78.6856    25.9173    -1.0895 H             1 RES     
    1420 H          -77.0931    25.4874    -0.4810 H             1 RES     
    1421 H          -78.5528    25.8948     0.5805 H             1 RES     
    1422 H          -75.0708    16.1088    -0.6705 H             1 RES     
    1423 H          -70.8426    15.2790    -1.2172 H             1 RES     
    1424 H          -70.9462    14.9649     0.6655 H             1 RES     
    1425 H          -70.9846    16.8672    -0.6432 H             1 RES     
    1426 H          -71.5523    18.8080     1.2843 H             1 RES     
    1427 H          -71.1719    17.4285     2.2677 H             1 RES     
    1428 H          -73.8209    17.9017     0.6438 H             1 RES     
    1429 H          -73.6319    18.1023     2.2601 H             1 RES     
    1430 H          -73.5014    16.4543     1.4307 H             1 RES     
    1431 H          -68.7866    18.2948    -0.5690 H             1 RES     
    1432 H          -68.5144    17.6268     1.1129 H             1 RES     
    1433 H          -69.1112    20.0208     1.3798 H             1 RES     
    1434 H          -69.5214    20.2010    -0.2210 H             1 RES     
    1435 H          -66.9668    19.2019    -0.9323 H             1 RES     
    1436 H          -66.7822    19.1225     0.7619 H             1 RES     
    1437 H          -67.5923    21.5983    -0.8890 H             1 RES     
    1438 H          -65.9744    21.2648    -0.2865 H             1 RES     
    1439 H          -67.4519    21.5852     0.7803 H             1 RES     
    1440 H          -63.3987    12.0227    -0.4704 H             1 RES     
    1441 H          -59.1316    11.4496    -1.0224 H             1 RES     
    1442 H          -59.2058    11.1251     0.8584 H             1 RES     
    1443 H          -59.3566    13.0286    -0.4487 H             1 RES     
    1444 H          -60.0385    14.9300     1.4679 H             1 RES     
    1445 H          -59.5788    13.5787     2.4563 H             1 RES     
    1446 H          -62.2521    13.8910     0.8369 H             1 RES     
    1447 H          -62.0721    14.0999     2.4541 H             1 RES     
    1448 H          -61.8452    12.4648     1.6235 H             1 RES     
    1449 H          -57.2601    14.5710    -0.3761 H             1 RES     
    1450 H          -56.9314    13.9176     1.2881 H             1 RES     
    1451 H          -57.6820    16.2827     1.5634 H             1 RES     
    1452 H          -58.1014    16.4308    -0.0373 H             1 RES     
    1453 H          -55.4990    15.5922    -0.7554 H             1 RES     
    1454 H          -55.3002    15.5235     0.9372 H             1 RES     
    1455 H          -56.2629    17.9454    -0.7142 H             1 RES     
    1456 H          -54.6271    17.7090    -0.1155 H             1 RES     
    1457 H          -56.1174    17.9439     0.9553 H             1 RES     
    1458 H          -51.5037     8.6386    -0.3061 H             1 RES     
    1459 H          -47.2111     8.3185    -0.8732 H             1 RES     
    1460 H          -47.2618     7.9938     1.0088 H             1 RES     
    1461 H          -47.5307     9.8808    -0.3004 H             1 RES     
    1462 H          -48.3171    11.7412     1.6215 H             1 RES     
    1463 H          -47.7731    10.4197     2.6072 H             1 RES     
    1464 H          -50.4667    10.5715     0.9973 H             1 RES     
    1465 H          -50.2939    10.7933     2.6132 H             1 RES     
    1466 H          -49.9730     9.1730     1.7835 H             1 RES     
    1467 H          -45.5259    11.5506    -0.2370 H             1 RES     
    1468 H          -45.1577    10.9200     1.4321 H             1 RES     
    1469 H          -46.0426    13.2327     1.7063 H             1 RES     
    1470 H          -46.4767    13.3567     0.1072 H             1 RES     
    1471 H          -43.8296    12.6716    -0.6185 H             1 RES     
    1472 H          -43.6235    12.6166     1.0739 H             1 RES     
    1473 H          -44.7330    14.9757    -0.5755 H             1 RES     
    1474 H          -43.0840    14.8376     0.0181 H             1 RES     
    1475 H          -44.5825    14.9835     1.0934 H             1 RES     
    1476 H          -39.4276     5.9681    -0.1756 H             1 RES     
    1477 H          -35.1249     5.9025    -0.7581 H             1 RES     
    1478 H          -35.1521     5.5783     1.1250 H             1 RES     
    1479 H          -35.5382     7.4425    -0.1851 H             1 RES     
    1480 H          -36.4263     9.2553     1.7421 H             1 RES     
    1481 H          -35.7999     7.9686     2.7250 H             1 RES     
    1482 H          -38.5040     7.9591     1.1245 H             1 RES     
    1483 H          -38.3394     8.1930     2.7392 H             1 RES     
    1484 H          -37.9254     6.5932     1.9098 H             1 RES     
    1485 H          -33.6324     9.2335    -0.1305 H             1 RES     
    1486 H          -33.2261     8.6277     1.5431 H             1 RES     
    1487 H          -34.2418    10.8809     1.8168 H             1 RES     
    1488 H          -34.6893    10.9797     0.2193 H             1 RES     
    1489 H          -32.0066    10.4508    -0.5144 H             1 RES     
    1490 H          -31.7939    10.4094     1.1777 H             1 RES     
    1491 H          -33.0464    12.6975    -0.4688 H             1 RES     
    1492 H          -31.3900    12.6582     0.1195 H             1 RES     
    1493 H          -32.8913    12.7146     1.1994 H             1 RES     
    1494 H          -27.2136     4.0205    -0.0830 H             1 RES     
    1495 H          -22.9197     4.2303    -0.6732 H             1 RES     
    1496 H          -22.9173     3.8730     1.2060 H             1 RES     
    1497 H          -23.4248     5.7658    -0.0282 H             1 RES     
    1498 H          -24.4155     7.4903     1.8316 H             1 RES     
    1499 H          -23.7207     6.2472     2.8382 H             1 RES     
    1500 H          -26.4019     6.0605     1.2115 H             1 RES     
    1501 H          -26.2604     6.3075     2.8279 H             1 RES     
    1502 H          -25.7427     4.7354     2.0003 H             1 RES     
    1503 H          -21.6422     7.5901     0.0079 H             1 RES     
    1504 H          -21.1737     7.0438     1.6560 H             1 RES     
    1505 H          -22.3277     9.2775     1.8870 H             1 RES     
    1506 H          -22.7934     9.2979     0.2909 H             1 RES     
    1507 H          -20.0782     8.9352    -0.4508 H             1 RES     
    1508 H          -19.8559     8.9137     1.2383 H             1 RES     
    1509 H          -21.2427    11.1225    -0.4046 H             1 RES     
    1510 H          -19.5822    11.1817     0.1750 H             1 RES     
    1511 H          -21.0781    11.1529     1.2621 H             1 RES     
    1512 H          -14.9048     2.8038    -0.0275 H             1 RES     
    1513 H          -10.6275     3.2473    -0.6425 H             1 RES     
    1514 H          -10.6074     2.9256     1.2419 H             1 RES     
    1515 H          -11.2229     4.7265    -0.0648 H             1 RES     
    1516 H          -12.3047     6.4246     1.8727 H             1 RES     
    1517 H          -11.5206     5.2217     2.8492 H             1 RES     
    1518 H          -14.2166     4.8893     1.2674 H             1 RES     
    1519 H          -14.0704     5.1451     2.8801 H             1 RES     
    1520 H          -13.4745     3.6033     2.0492 H             1 RES     
    1521 H           -9.5374     6.7378    -0.0268 H             1 RES     
    1522 H           -9.0584     6.1878     1.6541 H             1 RES     
    1523 H          -10.3239     8.3023     1.9275 H             1 RES     
    1524 H          -10.7947     8.3467     0.3336 H             1 RES     
    1525 H           -8.0692     8.1366    -0.4183 H             1 RES     
    1526 H           -7.8447     8.1228     1.2731 H             1 RES     
    1527 H           -9.3698    10.2448    -0.3643 H             1 RES     
    1528 H           -7.7161    10.4033     0.2124 H             1 RES     
    1529 H           -9.2062    10.2806     1.3025 H             1 RES     
    1530 H           -2.5674     2.3672    -0.0198 H             1 RES     
    1531 H            1.7630     3.3251    -0.9569 H             1 RES     
    1532 H            1.6513     3.2553     0.8859 H             1 RES     
    1533 H            0.3142     5.2364    -0.9018 H             1 RES     
    1534 H           -0.1261     6.3666     1.2927 H             1 RES     
    1535 H            0.6796     5.0491     2.1485 H             1 RES     
    1536 H           -1.8041     4.7744     0.3937 H             1 RES     
    1537 H           -1.8252     4.9118     2.1775 H             1 RES     
    1538 H           -1.1207     3.5134     1.4567 H             1 RES     
    1539 H            2.8296     5.3997    -0.8925 H             1 RES     
    1540 H            2.8388     5.4078     0.8656 H             1 RES     
    1541 H            1.4609     7.5029     0.8621 H             1 RES     
    1542 H            1.4183     7.4601    -0.9024 H             1 RES     
    1543 H            3.9198     7.6792    -0.9062 H             1 RES     
    1544 H            3.9120     7.6801     0.8654 H             1 RES     
    1545 H            2.4688     9.7227    -0.9029 H             1 RES     
    1546 H            3.9841     9.9994    -0.0161 H             1 RES     
    1547 H            2.4709     9.7199     0.8698 H             1 RES     
@<TRIPOS>BOND
       1      304      309 1
       2      195      196 1
       3      459      460 1
       4     1121      373 1
       5      435      436 1
       6      507      508 1
       7     1277      525 1
       8     1338      579 1
       9     1369      606 1
      10      840       93 1
      11      953      202 1
      12     1185      432 1
      13     1480      698 1
      14     1453      672 1
      15      857      107 1
      16     1055      306 1
      17     1237      484 1
      18     1479      697 1
      19     1110      359 1
      20     1278      527 1
      21     1050      303 1
      22      234      235 1
      23      402      403 1
      24      426      427 1
      25      498      499 1
      26     1473      688 1
      27     1013      258 1
      28     1218      466 1
      29      838       83 1
      30      775       26 1
      31     1159      410 1
      32      374      379 1
      33     1330      568 1
      34     1048      293 1
      35     1215      464 1
      36     1534      743 1
      37      160      161 1
      38      914      165 1
      39      424      425 1
      40       77       78 1
      41      197      198 1
      42      365      366 1
      43      461      462 1
      44      557      558 1
      45      283      284 1
      46      379      380 1
      47      667      668 1
      48      722       51 1
      49     1161      411 1
      50     1524      731 1
      51     1167      414 1
      52      648      224 1
      53     1020      271 1
      54      875      128 1
      55     1042      290 1
      56      312      314 1
      57     1303      549 1
      58      545      546 1
      59      571      402 1
      60      119      120 1
      61     1403      628 1
      62      695      696 1
      63     1258      503 1
      64      983      235 1
      65      998      251 1
      66      919      168 1
      67     1546      748 1
      68     1077      325 1
      69     1179      429 1
      70      179      189 1
      71     1227      479 1
      72      140      141 1
      73      404      405 1
      74      548      549 1
      75     1389      622 1
      76      692      121 1
      77       77       80 1
      78     1065      310 1
      79      957      204 1
      80     1153      398 1
      81      196      206 1
      82     1392      624 1
      83     1105      357 1
      84      190      191 1
      85      550      551 1
      86      454      455 1
      87      749        3 1
      88     1412      639 1
      89     1291      537 1
      90      287      290 1
      91       73       74 1
      92      361      362 1
      93      808       60 1
      94      574      584 1
      95      469      470 1
      96       85       86 1
      97      836       82 1
      98     1407      637 1
      99     1250      499 1
     100      958      204 1
     101     1174      426 1
     102     1163      412 1
     103     1309      552 1
     104      160      172 1
     105     1505      716 1
     106     1199      448 1
     107      881      131 1
     108      874      118 1
     109       52       53 1
     110      268      269 1
     111      316      317 1
     112      340      341 1
     113      532      533 1
     114     1272      519 1
     115     1335      577 1
     116     1417      642 1
     117      724      725 1
     118     1122      374 1
     119     1175      427 1
     120     1436      657 1
     121     1504      715 1
     122       15       16 1
     123      303      304 1
     124      399      400 1
     125      591      592 1
     126     1319      563 1
     127      934      184 1
     128      687      688 1
     129      487      488 1
     130      127      128 1
     131     1162      412 1
     132       42       43 1
     133      306      307 1
     134      618      619 1
     135      106      107 1
     136      178      179 1
     137      226      227 1
     138      610      611 1
     139     1381      612 1
     140     1364      597 1
     141     1060      308 1
     142     1367      598 1
     143      480      481 1
     144       24       25 1
     145       96       97 1
     146      120      121 1
     147      915      166 1
     148      632      261 1
     149      648      649 1
     150      696      697 1
     151     1046      292 1
     152     1390      623 1
     153     1188      433 1
     154       16       17 1
     155      304      305 1
     156      978      223 1
     157      400      401 1
     158      592      593 1
     159        5        4 1
     160      677      678 1
     161        7       10 1
     162     1138      391 1
     163       21       31 1
     164      773       25 1
     165      795       44 1
     166     1044      291 1
     167     1059      308 1
     168     1528      733 1
     169     1219      466 1
     170      755        7 1
     171      706      105 1
     172      601      332 1
     173     1485      700 1
     174      185      186 1
     175      414      415 1
     176      510      511 1
     177      438      439 1
     178      150      151 1
     179      246      247 1
     180     1451      671 1
     181     1260      513 1
     182     1191      443 1
     183     1499      713 1
     184     1313      553 1
     185      489      490 1
     186      105      106 1
     187      177      178 1
     188     1016      268 1
     189        4        3 1
     190      992      239 1
     191      588      589 1
     192       12       13 1
     193      396      397 1
     194      885      133 1
     195     1510      718 1
     196      948      200 1
     197      819       65 1
     198     1023      272 1
     199     1214      464 1
     200       49       50 1
     201      104      105 1
     202       97       98 1
     203      169      170 1
     204      176      177 1
     205      625      626 1
     206      745      746 1
     207      969      219 1
     208      853       99 1
     209     1221      467 1
     210      284      294 1
     211       27       28 1
     212       99      100 1
     213      747      748 1
     214      845       96 1
     215     1398      626 1
     216     1513      726 1
     217      629      283 1
     218      425      426 1
     219     1465      684 1
     220      863      114 1
     221      354      364 1
     222      368      384 1
     223      705      106 1
     224     1460      681 1
     225      207      208 1
     226      471      472 1
     227      271      272 1
     228      535      536 1
     229      655      656 1
     230     1440      662 1
     231      727      728 1
     232     1008      256 1
     233     1200      448 1
     234      803       48 1
     235       69       70 1
     236      189      190 1
     237      357      358 1
     238     1373      608 1
     239     1230      481 1
     240     1149      396 1
     241     1371      607 1
     242      841       93 1
     243      913      165 1
     244     1018      270 1
     245      676      157 1
     246     1176      428 1
     247      595      596 1
     248       67       68 1
     249      211      212 1
     250      355      356 1
     251      571      420 1
     252      844       95 1
     253      784       30 1
     254     1340      579 1
     255      785       30 1
     256       91      101 1
     257      739      749 1
     258     1540      745 1
     259      947      199 1
     260      899      149 1
     261      409      414 1
     262     1211      463 1
     263     1427      653 1
     264      569      570 1
     265     1472      687 1
     266      757        8 1
     267      215      216 1
     268      287      288 1
     269      573      399 1
     270      599      600 1
     271      671      672 1
     272     1516      728 1
     273      878      130 1
     274     1243      496 1
     275      721       70 1
     276      911      163 1
     277      825       77 1
     278      204      205 1
     279     1152      398 1
     280     1487      701 1
     281      577      580 1
     282      479      484 1
     283      300      312 1
     284      471      542 1
     285      403      419 1
     286      260      261 1
     287      332      333 1
     288      524      525 1
     289      644      645 1
     290      716      717 1
     291      566      567 1
     292       62       63 1
     293      776       26 1
     294      326      327 1
     295      638      639 1
     296     1231      481 1
     297      358      359 1
     298      694      695 1
     299      467      468 1
     300      563      564 1
     301     1233      482 1
     302     1119      363 1
     303      907      153 1
     304      512      513 1
     305      200      201 1
     306      248      249 1
     307      440      441 1
     308     1000      252 1
     309      735       36 1
     310      109      110 1
     311      181      182 1
     312      511      521 1
     313     1092      342 1
     314     1118      363 1
     315      852       99 1
     316     1433      656 1
     317     1021      271 1
     318     1541      746 1
     319      510      522 1
     320      970      219 1
     321     1193      445 1
     322      674      178 1
     323     1139      391 1
     324     1283      533 1
     325     1054      305 1
     326     1421      643 1
     327     1123      375 1
     328      665      666 1
     329      544      554 1
     330     1325      566 1
     331     1082      328 1
     332     1248      499 1
     333      788       41 1
     334     1254      501 1
     335     1443      667 1
     336      151      152 1
     337      247      248 1
     338      439      440 1
     339      511      512 1
     340      210      211 1
     341      442      443 1
     342      514      515 1
     343      130      131 1
     344      250      251 1
     345     1030      275 1
     346     1522      730 1
     347      285      286 1
     348      848       97 1
     349     1081      327 1
     350     1007      255 1
     351     1370      606 1
     352     1271      518 1
     353      765       12 1
     354      576      577 1
     355      312      313 1
     356     1304      549 1
     357     1096      343 1
     358      384      385 1
     359      232      233 1
     360     1089      340 1
     361      491      540 1
     362      427      430 1
     363      851       98 1
     364     1276      520 1
     365      506      507 1
     366     1293      538 1
     367     1326      566 1
     368      434      435 1
     369      146      147 1
     370      242      243 1
     371      410      411 1
     372      901      150 1
     373      778       27 1
     374     1229      480 1
     375     1482      699 1
     376      377      378 1
     377      906      152 1
     378      102      103 1
     379      126      127 1
     380      174      175 1
     381     1438      658 1
     382      702      703 1
     383     1083      328 1
     384      884      133 1
     385     1076      325 1
     386     1439      658 1
     387     1072      323 1
     388      537      538 1
     389       57       58 1
     390      321      322 1
     391      908      153 1
     392      633      634 1
     393     1302      549 1
     394     1413      640 1
     395     1052      304 1
     396     1365      598 1
     397      507      526 1
     398       20       32 1
     399      603      329 1
     400      622      623 1
     401       46       47 1
     402       94       95 1
     403      166      167 1
     404      262      263 1
     405      334      335 1
     406      742      743 1
     407     1386      617 1
     408      299      300 1
     409      347      348 1
     410      539      540 1
     411      683      684 1
     412      731      732 1
     413     1115      362 1
     414      946      198 1
     415     1210      462 1
     416      536      537 1
     417       56       57 1
     418      272      273 1
     419      320      321 1
     420      344      345 1
     421      632      633 1
     422      728      729 1
     423      694      704 1
     424      769       13 1
     425       51       52 1
     426      182      185 1
     427      267      268 1
     428      315      316 1
     429      339      340 1
     430      531      532 1
     431      627      628 1
     432      723      724 1
     433     1358      594 1
     434     1294      538 1
     435     1434      656 1
     436     1274      520 1
     437     1441      666 1
     438      595      592 1
     439       39       40 1
     440      495      496 1
     441      711      712 1
     442     1184      431 1
     443     1143      394 1
     444       59       64 1
     445      546      547 1
     446      354      355 1
     447      898      149 1
     448      995      240 1
     449     1349      583 1
     450     1444      668 1
     451     1391      623 1
     452      789       41 1
     453      861      113 1
     454      263      279 1
     455      633      259 1
     456      405      417 1
     457     1164      413 1
     458     1515      727 1
     459      940      187 1
     460       40       41 1
     461      496      497 1
     462      712      713 1
     463       29       30 1
     464     1312      553 1
     465      585      386 1
     466     1032      282 1
     467     1327      567 1
     468      662      191 1
     469      187      188 1
     470      235      236 1
     471      586      367 1
     472      427      428 1
     473     1520      729 1
     474       50       51 1
     475      314      315 1
     476      626      627 1
     477     1470      686 1
     478      616      315 1
     479     1103      356 1
     480      389      399 1
     481     1027      274 1
     482      619      629 1
     483      462      465 1
     484     1265      516 1
     485      871      117 1
     486      113      114 1
     487      630      281 1
     488      191      192 1
     489      551      552 1
     490      455      456 1
     491     1116      362 1
     492      497      500 1
     493     1189      433 1
     494      781       28 1
     495      806       58 1
     496     1070      322 1
     497     1408      638 1
     498     1414      640 1
     499     1217      465 1
     500      132      133 1
     501      372      373 1
     502      708      709 1
     503     1205      450 1
     504     1538      744 1
     505     1537      744 1
     506       24       29 1
     507     1323      565 1
     508       20       21 1
     509      116      117 1
     510      476      477 1
     511     1252      500 1
     512      692      693 1
     513     1486      700 1
     514     1363      597 1
     515      614      615 1
     516       86       87 1
     517      230      231 1
     518      374      375 1
     519     1107      358 1
     520     1186      432 1
     521      972      220 1
     522      142      143 1
     523      406      407 1
     524     1530      737 1
     525      993      239 1
     526     1322      564 1
     527      988      237 1
     528      810       61 1
     529      157      158 1
     530      253      254 1
     531      421      422 1
     532      445      446 1
     533      517      518 1
     534     1097      344 1
     535      823       76 1
     536      968      219 1
     537      882      132 1
     538      890      135 1
     539      207      209 1
     540     1287      535 1
     541      962      212 1
     542      818       64 1
     543     1259      503 1
     544      172      173 1
     545      220      221 1
     546     1094      343 1
     547      604      605 1
     548      816       63 1
     549      357      360 1
     550     1314      557 1
     551     1209      461 1
     552      279      280 1
     553      543      544 1
     554      351      352 1
     555      663      664 1
     556      282      283 1
     557      666      667 1
     558       10       11 1
     559      298      299 1
     560      682      683 1
     561      771       23 1
     562     1300      548 1
     563      392      395 1
     564     1057      307 1
     565     1245      497 1
     566       72       73 1
     567      216      217 1
     568      644      248 1
     569     1448      669 1
     570      900      149 1
     571     1347      583 1
     572      727      730 1
     573     1099      345 1
     574     1192      444 1
     575     1430      654 1
     576      265      277 1
     577     1382      612 1
     578      472      541 1
     579     1384      613 1
     580      797       45 1
     581     1158      410 1
     582      199      204 1
     583      793       44 1
     584      985      236 1
     585      794       44 1
     586      318      319 1
     587        6        7 1
     588       54       55 1
     589      582      583 1
     590      390      391 1
     591     1496      711 1
     592      990      238 1
     593      708       84 1
     594     1452      671 1
     595      760        9 1
     596     1422      647 1
     597       60       61 1
     598      108      109 1
     599        1        2 1
     600      879      130 1
     601      180      181 1
     602      636      637 1
     603     1353      592 1
     604      732      733 1
     605      697      700 1
     606      910      163 1
     607     1393      624 1
     608      804       48 1
     609      996      240 1
     610     1467      685 1
     611     1533      742 1
     612     1053      305 1
     613     1491      703 1
     614     1039      289 1
     615      801       47 1
     616      385      386 1
     617      577      578 1
     618     1150      397 1
     619     1317      562 1
     620      406      416 1
     621      832       80 1
     622     1029      275 1
     623     1014      258 1
     624       56       66 1
     625     1171      415 1
     626     1279      531 1
     627      298      314 1
     628      719       73 1
     629      234      239 1
     630      924      170 1
     631     1045      292 1
     632     1355      593 1
     633      938      186 1
     634     1298      546 1
     635     1264      515 1
     636      677      156 1
     637      447      448 1
     638      519      520 1
     639      423      424 1
     640      159      160 1
     641      980      233 1
     642      255      256 1
     643     1419      643 1
     644     1244      496 1
     645      607      608 1
     646     1475      688 1
     647     1497      712 1
     648      129      134 1
     649     1270      518 1
     650     1344      581 1
     651      877      129 1
     652     1405      636 1
     653     1147      395 1
     654      141      142 1
     655       21       22 1
     656      405      406 1
     657      477      478 1
     658      689      143 1
     659      102      104 1
     660     1456      673 1
     661     1022      272 1
     662      926      170 1
     663     1315      561 1
     664       19       20 1
     665       91       92 1
     666      163      164 1
     667      475      476 1
     668      739      740 1
     669      218      219 1
     670      602      603 1
     671     1093      342 1
     672     1429      654 1
     673     1160      411 1
     674      193      209 1
     675      799       46 1
     676      991      238 1
     677     1037      288 1
     678      894      146 1
     679     1133      379 1
     680      931      183 1
     681       89       90 1
     682      989      238 1
     683      257      258 1
     684      452      454 1
     685      424      434 1
     686     1213      464 1
     687      798       46 1
     688      949      200 1
     689     1310      552 1
     690     1372      608 1
     691     1216      465 1
     692        2        3 1
     693     1102      352 1
     694     1348      583 1
     695      156      157 1
     696      420      421 1
     697     1296      542 1
     698      637      640 1
     699     1488      701 1
     700     1035      287 1
     701      596      597 1
     702      212      213 1
     703      770       23 1
     704     1507      717 1
     705     1154      398 1
     706       14       15 1
     707      774       25 1
     708      302      303 1
     709      590      591 1
     710     1305      550 1
     711      686      687 1
     712      724      734 1
     713     1531      741 1
     714      854      100 1
     715      588      364 1
     716       35       36 1
     717      491      492 1
     718      457      458 1
     719       80       81 1
     720      193      194 1
     721      368      369 1
     722       90      102 1
     723      349      350 1
     724      277      278 1
     725      301      302 1
     726      559      569 1
     727     1285      534 1
     728     1428      654 1
     729     1251      500 1
     730      960      205 1
     731      617      296 1
     732      685      686 1
     733     1339      579 1
     734      682      685 1
     735     1544      747 1
     736      956      203 1
     737      979      223 1
     738     1385      613 1
     739     1356      594 1
     740       53       69 1
     741     1502      714 1
     742      966      218 1
     743     1246      498 1
     744      641      642 1
     745     1478      696 1
     746      508      509 1
     747      436      437 1
     748      124      125 1
     749      244      245 1
     750      700      701 1
     751      736       35 1
     752      896      148 1
     753      559      560 1
     754     1492      703 1
     755     1523      731 1
     756     1090      341 1
     757     1426      653 1
     758       82       83 1
     759      202      203 1
     760      370      371 1
     761      466      467 1
     762      562      563 1
     763     1532      741 1
     764     1404      632 1
     765      868      116 1
     766     1378      610 1
     767      815       63 1
     768     1474      688 1
     769      887      134 1
     770      552      553 1
     771      456      457 1
     772      759        9 1
     773      192      193 1
     774      847       97 1
     775      112      113 1
     776      221      222 1
     777      282      281 1
     778      605      606 1
     779      749      750 1
     780      451      441 1
     781      691      140 1
     782     1459      681 1
     783      842       94 1
     784      554      555 1
     785      362      363 1
     786     1483      699 1
     787     1224      468 1
     788      959      205 1
     789      599      589 1
     790      961      205 1
     791     1424      651 1
     792      893      146 1
     793     1010      257 1
     794     1202      449 1
     795     1526      732 1
     796     1004      254 1
     797     1196      446 1
     798      859      111 1
     799       41       42 1
     800      606      607 1
     801       78       79 1
     802      222      223 1
     803      353      354 1
     804     1477      696 1
     805      856      100 1
     806     1539      745 1
     807      444      449 1
     808     1241      485 1
     809     1263      515 1
     810     1268      517 1
     811      561      562 1
     812      417      418 1
     813     1292      537 1
     814     1282      533 1
     815     1493      703 1
     816      371      381 1
     817     1141      393 1
     818      336      346 1
     819      955      203 1
     820     1040      289 1
     821      909      153 1
     822     1011      257 1
     823     1203      449 1
     824      214      215 1
     825      286      287 1
     826      670      671 1
     827     1178      429 1
     828     1281      532 1
     829     1501      714 1
     830      161      171 1
     831      796       45 1
     832      945      198 1
     833      125      137 1
     834      805       58 1
     835     1280      531 1
     836      476      486 1
     837      820       65 1
     838      147      148 1
     839      411      412 1
     840      690      141 1
     841     1253      501 1
     842     1177      428 1
     843     1411      639 1
     844     1297      546 1
     845     1442      666 1
     846     1148      396 1
     847     1377      610 1
     848     1360      595 1
     849      529      539 1
     850      649      659 1
     851     1463      683 1
     852      860      112 1
     853      888      134 1
     854     1169      415 1
     855       18       19 1
     856      474      475 1
     857      987      237 1
     858     1069      321 1
     859      889      135 1
     860      693      119 1
     861      981      233 1
     862     1038      289 1
     863     1420      643 1
     864      256      257 1
     865      472      473 1
     866      594      593 1
     867     1471      687 1
     868       43       44 1
     869      259      260 1
     870      307      308 1
     871      331      332 1
     872      619      620 1
     873      715      716 1
     874     1376      609 1
     875      578      579 1
     876      290      291 1
     877      386      387 1
     878      674      675 1
     879      139      123 1
     880      490      541 1
     881     1064      310 1
     882      929      181 1
     883     1067      317 1
     884     1091      341 1
     885      401      402 1
     886     1328      567 1
     887      664      674 1
     888      834       81 1
     889       23       24 1
     890       71       72 1
     891      479      480 1
     892      830       79 1
     893      827       78 1
     894     1031      275 1
     895      473      489 1
     896     1318      563 1
     897     1142      393 1
     898      236      237 1
     899      428      429 1
     900      452      453 1
     901      615      316 1
     902      500      501 1
     903     1409      638 1
     904      952      202 1
     905      228      244 1
     906     1135      380 1
     907      109      119 1
     908     1545      748 1
     909      266      276 1
     910     1041      290 1
     911     1056      306 1
     912     1324      565 1
     913      121      122 1
     914       25       26 1
     915      883      132 1
     916     1075      324 1
     917     1226      478 1
     918      481      482 1
     919      697      698 1
     920      522      524 1
     921      493      539 1
     922      214      224 1
     923      373      374 1
     924      565      566 1
     925     1015      268 1
     926      562      565 1
     927     1320      564 1
     928       88      104 1
     929     1005      254 1
     930     1134      380 1
     931     1529      733 1
     932     1051      303 1
     933     1181      430 1
     934     1098      344 1
     935      473      474 1
     936      497      498 1
     937     1336      578 1
     938      599      353 1
     939     1068      321 1
     940      514      519 1
     941      556      437 1
     942      292      293 1
     943      580      581 1
     944      388      389 1
     945      660      211 1
     946      231      232 1
     947     1025      273 1
     948      367      368 1
     949      782       29 1
     950     1166      413 1
     951     1190      443 1
     952      330      331 1
     953      522      523 1
     954     1239      485 1
     955      758        9 1
     956       93       94 1
     957      165      166 1
     958      213      214 1
     959      506      527 1
     960     1342      580 1
     961      597      598 1
     962      741      742 1
     963      704      108 1
     964     1144      394 1
     965       64       65 1
     966      280      281 1
     967      352      353 1
     968      544      545 1
     969      640      641 1
     970        5        6 1
     971      389      390 1
     972      581      582 1
     973      607      610 1
     974      570      421 1
     975     1506      716 1
     976     1289      536 1
     977     1242      492 1
     978     1220      467 1
     979      866      115 1
     980      720       71 1
     981      161      162 1
     982      198      199 1
     983      209      210 1
     984      921      168 1
     985      233      234 1
     986      558      559 1
     987      462      463 1
     988     1547      748 1
     989     1308      551 1
     990     1275      520 1
     991      129      130 1
     992      657      658 1
     993      977      223 1
     994      228      229 1
     995      300      301 1
     996      612      613 1
     997     1114      361 1
     998      504      528 1
     999      925      170 1
    1000      923      169 1
    1001      107      108 1
    1002      179      180 1
    1003      659      660 1
    1004     1228      480 1
    1005      529      530 1
    1006      265      266 1
    1007      337      338 1
    1008      649      650 1
    1009      656      657 1
    1010      319      329 1
    1011     1464      684 1
    1012      645      246 1
    1013     1383      613 1
    1014      123      124 1
    1015      651      652 1
    1016     1500      714 1
    1017     1352      591 1
    1018     1009      256 1
    1019     1201      448 1
    1020     1155      408 1
    1021     1262      514 1
    1022     1295      538 1
    1023     1521      730 1
    1024      567      568 1
    1025      933      184 1
    1026      335      347 1
    1027     1299      547 1
    1028       55       56 1
    1029      175      176 1
    1030      319      320 1
    1031     1343      581 1
    1032     1273      519 1
    1033       67       69 1
    1034      927      177 1
    1035      897      148 1
    1036      661      210 1
    1037     1128      377 1
    1038     1267      517 1
    1039       14        4 1
    1040     1481      698 1
    1041      242      244 1
    1042      347      349 1
    1043      835       82 1
    1044     1001      253 1
    1045      602      331 1
    1046     1489      702 1
    1047      903      151 1
    1048     1095      343 1
    1049     1290      536 1
    1050      575      576 1
    1051     1208      461 1
    1052      494      504 1
    1053     1129      378 1
    1054     1457      673 1
    1055      880      131 1
    1056      572      401 1
    1057      974      221 1
    1058      721       52 1
    1059      217      220 1
    1060      455      556 1
    1061      620      621 1
    1062       92       93 1
    1063      756        8 1
    1064      164      165 1
    1065      740      741 1
    1066      126      136 1
    1067      470      471 1
    1068      873      118 1
    1069      350      351 1
    1070      542      543 1
    1071      734      735 1
    1072      604      614 1
    1073       22       23 1
    1074       70       71 1
    1075      478      479 1
    1076     1006      255 1
    1077     1198      447 1
    1078      515      516 1
    1079      155      156 1
    1080      251      252 1
    1081      419      420 1
    1082      443      444 1
    1083      864      114 1
    1084      944      188 1
    1085      145      146 1
    1086      152      153 1
    1087      560      561 1
    1088      409      410 1
    1089     1235      483 1
    1090      505      506 1
    1091      618      294 1
    1092     1131      378 1
    1093      229      230 1
    1094     1375      609 1
    1095      976      222 1
    1096     1028      274 1
    1097      917      167 1
    1098     1256      502 1
    1099     1484      699 1
    1100      928      181 1
    1101     1543      747 1
    1102      752        2 1
    1103      622      625 1
    1104      742      745 1
    1105      469      543 1
    1106      339      344 1
    1107      617      618 1
    1108      817       64 1
    1109     1334      576 1
    1110     1066      310 1
    1111      364      365 1
    1112       76       77 1
    1113      196      197 1
    1114      460      461 1
    1115     1080      327 1
    1116      600      351 1
    1117     1418      642 1
    1118      737       16 1
    1119      112      115 1
    1120     1316      561 1
    1121      712      715 1
    1122     1410      639 1
    1123      652      655 1
    1124       90       91 1
    1125      162      163 1
    1126      642      643 1
    1127     1379      611 1
    1128      738      739 1
    1129      490      491 1
    1130       34       35 1
    1131      154      155 1
    1132      950      201 1
    1133      573      574 1
    1134      954      203 1
    1135      528      529 1
    1136      264      265 1
    1137      288      289 1
    1138      336      337 1
    1139      672      673 1
    1140     1238      484 1
    1141     1207      457 1
    1142      736       17 1
    1143      138      137 1
    1144     1257      503 1
    1145      547      550 1
    1146     1136      380 1
    1147      826       78 1
    1148     1495      711 1
    1149      663      189 1
    1150      482      483 1
    1151       26       27 1
    1152      122      123 1
    1153      698      699 1
    1154      487      489 1
    1155      707       86 1
    1156      942      188 1
    1157       94       99 1
    1158      454      438 1
    1159      812       62 1
    1160     1120      373 1
    1161     1003      254 1
    1162     1195      446 1
    1163      456      555 1
    1164      895      147 1
    1165     1087      339 1
    1166      862      113 1
    1167      195      207 1
    1168       17       18 1
    1169      689      690 1
    1170     1333      576 1
    1171      963      216 1
    1172      370      382 1
    1173     1247      498 1
    1174     1455      673 1
    1175      587      366 1
    1176      393      394 1
    1177      297      298 1
    1178     1225      478 1
    1179      791       43 1
    1180      681      682 1
    1181     1125      376 1
    1182      734       38 1
    1183     1402      628 1
    1184      333      349 1
    1185     1261      513 1
    1186      144      154 1
    1187      846       96 1
    1188     1387      621 1
    1189      252      255 1
    1190     1536      744 1
    1191      916      166 1
    1192      814       63 1
    1193      587      588 1
    1194       11       12 1
    1195       59       60 1
    1196       74       84 1
    1197      323      324 1
    1198      395      396 1
    1199      635      636 1
    1200      912      164 1
    1201     1173      426 1
    1202      584      585 1
    1203        8        9 1
    1204      296      297 1
    1205     1034      286 1
    1206     1106      358 1
    1207      392      393 1
    1208      680      681 1
    1209     1286      534 1
    1210      905      152 1
    1211     1476      692 1
    1212      829       79 1
    1213     1151      397 1
    1214      678      154 1
    1215     1223      468 1
    1216     1074      324 1
    1217      937      185 1
    1218     1527      733 1
    1219      291      292 1
    1220      387      388 1
    1221     1399      627 1
    1222      850       98 1
    1223      305      306 1
    1224      865      114 1
    1225     1061      308 1
    1226      738       14 1
    1227     1100      345 1
    1228       87       88 1
    1229      375      376 1
    1230      584      388 1
    1231      676      175 1
    1232     1331      568 1
    1233      186      187 1
    1234     1012      258 1
    1235     1359      595 1
    1236      659      213 1
    1237     1047      293 1
    1238      843       95 1
    1239     1140      392 1
    1240     1346      582 1
    1241      994      240 1
    1242      601      350 1
    1243      691      122 1
    1244      922      169 1
    1245      586      385 1
    1246      301      311 1
    1247       88       89 1
    1248      376      377 1
    1249      125      126 1
    1250      245      246 1
    1251      437      438 1
    1252      509      510 1
    1253      701      702 1
    1254     1435      657 1
    1255      547      548 1
    1256      139      140 1
    1257      403      404 1
    1258     1156      408 1
    1259      266      267 1
    1260      338      339 1
    1261      777       27 1
    1262      530      531 1
    1263      722      723 1
    1264     1168      414 1
    1265     1406      636 1
    1266      764       11 1
    1267      828       79 1
    1268      558      434 1
    1269      172      174 1
    1270      277      279 1
    1271     1447      669 1
    1272      891      135 1
    1273      143      144 1
    1274      239      240 1
    1275      407      408 1
    1276     1395      625 1
    1277      431      432 1
    1278      984      235 1
    1279      935      184 1
    1280      647      226 1
    1281     1019      270 1
    1282     1165      413 1
    1283      920      168 1
    1284      918      167 1
    1285     1446      669 1
    1286     1126      376 1
    1287       36       37 1
    1288       84       85 1
    1289      492      493 1
    1290      417      419 1
    1291      646      227 1
    1292     1462      683 1
    1293      356      357 1
    1294      508      524 1
    1295     1146      395 1
    1296      249      259 1
    1297       38       39 1
    1298      110      111 1
    1299      134      135 1
    1300      182      183 1
    1301      494      495 1
    1302      662      663 1
    1303      710      711 1
    1304      430      431 1
    1305      502      503 1
    1306      751        1 1
    1307     1437      658 1
    1308       37       38 1
    1309      493      494 1
    1310      709      710 1
    1311     1519      729 1
    1312     1332      572 1
    1313      634      644 1
    1314      767       13 1
    1315     1266      516 1
    1316      743      744 1
    1317     1374      609 1
    1318     1542      746 1
    1319     1368      602 1
    1320      147      150 1
    1321     1469      686 1
    1322     1127      377 1
    1323      723       49 1
    1324      652      653 1
    1325     1301      548 1
    1326     1112      360 1
    1327     1088      340 1
    1328      111      112 1
    1329      183      184 1
    1330      327      328 1
    1331       58       59 1
    1332      274      275 1
    1333      322      323 1
    1334      634      635 1
    1335      730      731 1
    1336     1525      732 1
    1337     1508      717 1
    1338     1535      743 1
    1339     1511      718 1
    1340     1240      485 1
    1341     1101      345 1
    1342      360      361 1
    1343      904      151 1
    1344     1432      655 1
    1345     1170      415 1
    1346     1187      433 1
    1347     1425      652 1
    1348       53       54 1
    1349      932      183 1
    1350      269      270 1
    1351      317      318 1
    1352      341      342 1
    1353      533      534 1
    1354      629      630 1
    1355      725      726 1
    1356     1180      429 1
    1357     1362      596 1
    1358      939      186 1
    1359     1284      534 1
    1360      997      247 1
    1361     1085      338 1
    1362     1206      450 1
    1363      631      262 1
    1364     1396      625 1
    1365      766       12 1
    1366     1222      468 1
    1367     1145      394 1
    1368     1063      309 1
    1369      270      271 1
    1370      294      295 1
    1371      342      343 1
    1372      678      679 1
    1373      726      727 1
    1374      661      192 1
    1375      792       43 1
    1376     1049      293 1
    1377      646      245 1
    1378      458      554 1
    1379       81       82 1
    1380      225      226 1
    1381      369      370 1
    1382      382      384 1
    1383     1017      269 1
    1384      824       76 1
    1385     1062      309 1
    1386      139      137 1
    1387     1204      450 1
    1388      783       29 1
    1389      876      128 1
    1390     1249      499 1
    1391      452      440 1
    1392     1288      535 1
    1393      831       80 1
    1394      892      142 1
    1395     1401      628 1
    1396      227      228 1
    1397      611      612 1
    1398      936      185 1
    1399      964      216 1
    1400      217      218 1
    1401      608      609 1
    1402      224      225 1
    1403      965      217 1
    1404     1043      291 1
    1405     1002      253 1
    1406     1137      387 1
    1407      557      436 1
    1408     1194      445 1
    1409      753        6 1
    1410      679      689 1
    1411      158      174 1
    1412     1400      627 1
    1413     1397      626 1
    1414       75       76 1
    1415      603      604 1
    1416       42       45 1
    1417     1350      587 1
    1418      761       10 1
    1419      675      176 1
    1420      941      187 1
    1421     1341      580 1
    1422      329      330 1
    1423     1321      564 1
    1424     1182      430 1
    1425     1415      641 1
    1426     1361      596 1
    1427     1450      670 1
    1428     1024      273 1
    1429      231      241 1
    1430      973      221 1
    1431      867      115 1
    1432        7        8 1
    1433      833       81 1
    1434      295      296 1
    1435      391      392 1
    1436      679      680 1
    1437      762       10 1
    1438      269      274 1
    1439      569      423 1
    1440     1388      621 1
    1441      117      118 1
    1442      237      238 1
    1443      501      502 1
    1444      693      694 1
    1445      822       72 1
    1446     1517      728 1
    1447     1232      482 1
    1448      951      201 1
    1449      780       28 1
    1450      943      188 1
    1451      450      449 1
    1452      849       98 1
    1453      772       24 1
    1454      115      116 1
    1455      886      133 1
    1456      650      651 1
    1457      746      747 1
    1458      786       30 1
    1459      811       61 1
    1460      902      150 1
    1461      768       13 1
    1462     1236      483 1
    1463     1337      578 1
    1464     1380      611 1
    1465     1058      307 1
    1466     1494      707 1
    1467      790       42 1
    1468      982      234 1
    1469     1431      655 1
    1470       32       34 1
    1471      527      528 1
    1472     1197      447 1
    1473      623      624 1
    1474       47       48 1
    1475       95       96 1
    1476      167      168 1
    1477      263      264 1
    1478      335      336 1
    1479      647      648 1
    1480      719      720 1
    1481     1130      378 1
    1482     1033      286 1
    1483      858      111 1
    1484      839       83 1
    1485      252      253 1
    1486      444      445 1
    1487      516      517 1
    1488       18       34 1
    1489      572      573 1
    1490      967      218 1
    1491      284      285 1
    1492      668      669 1
    1493      164      169 1
    1494      446      447 1
    1495      422      423 1
    1496      158      159 1
    1497     1354      593 1
    1498     1357      594 1
    1499      131      132 1
    1500      371      372 1
    1501     1466      684 1
    1502      707      708 1
    1503      128      129 1
    1504       32       33 1
    1505      704      705 1
    1506      325      326 1
    1507      397      398 1
    1508      589      590 1
    1509       61       62 1
    1510      637      638 1
    1511      322      325 1
    1512      837       83 1
    1513     1269      518 1
    1514     1172      422 1
    1515     1234      483 1
    1516      975      222 1
    1517     1255      502 1
    1518     1212      463 1
    1519     1518      729 1
    1520      809       60 1
    1521     1073      324 1
    1522     1345      582 1
    1523     1512      722 1
    1524      737      738 1
    1525      779       28 1
    1526     1113      361 1
    1527      706       87 1
    1528     1306      550 1
    1529      412      413 1
    1530      484      485 1
    1531      807       59 1
    1532      148      149 1
    1533      999      251 1
    1534     1071      323 1
    1535       39       49 1
    1536      869      116 1
    1537     1445      668 1
    1538     1458      677 1
    1539      199      200 1
    1540      463      464 1
    1541      532      535 1
    1542     1111      360 1
    1543     1329      568 1
    1544     1503      715 1
    1545     1078      326 1
    1546      763       11 1
    1547      621      622 1
    1548      525      526 1
    1549       45       46 1
    1550      261      262 1
    1551      309      310 1
    1552      333      334 1
    1553      717      718 1
    1554     1514      726 1
    1555     1079      326 1
    1556     1498      713 1
    1557      432      433 1
    1558      408      409 1
    1559      504      505 1
    1560      802       48 1
    1561      144      145 1
    1562      631      280 1
    1563      664      665 1
    1564      653      654 1
    1565      667      670 1
    1566     1084      328 1
    1567      750        1 1
    1568     1104      356 1
    1569     1416      641 1
    1570     1157      409 1
    1571      458      459 1
    1572       74       75 1
    1573      194      195 1
    1574     1117      363 1
    1575      614      318 1
    1576     1109      359 1
    1577      872      118 1
    1578      475      487 1
    1579     1423      651 1
    1580     1086      338 1
    1581      986      236 1
    1582      713      714 1
    1583      366      367 1
    1584     1026      273 1
    1585      971      220 1
    1586     1307      551 1
    1587     1454      672 1
    1588     1183      431 1
    1589      616      297 1
    1590     1311      553 1
    1591      441      442 1
    1592      513      514 1
    1593      465      466 1
    1594      930      182 1
    1595      201      202 1
    1596      249      250 1
    1597      870      117 1
    1598      800       47 1
    1599     1394      624 1
    1600     1366      598 1
    1601      459      469 1
    1602      855      100 1
    1603     1509      718 1
    1604     1490      702 1
    1605     1449      670 1
    1606      574      575 1
    1607     1132      379 1
    1608      382      383 1
    1609      709      719 1
    1610     1124      375 1
    1611      754        6 1
    1612     1351      591 1
    1613     1468      685 1
    1614      230      242 1
    1615     1036      288 1
    1616       55       67 1
    1617     1461      682 1
    1618      821       65 1
    1619      787       37 1
    1620     1108      359 1
    1621      813       62 1
@<TRIPOS>SUBSTRUCTURE
       1 RES             1 RESIDUE    0 **** ROOT      0
